
     RDKit          3D

 25 27  0  0  0  0  0  0  0  0999 V2000
    0.6538    7.1251   23.6799 C   0  0  0  0  0  0  0  0  0  0  0  0
    0.7897    7.3124   25.1005 C   0  0  0  0  0  0  0  0  0  0  0  0
    0.4588    8.4594   25.6478 C   0  0  0  0  0  0  0  0  0  0  0  0
   -0.0496    9.5654   24.8495 C   0  0  0  0  0  0  0  0  0  0  0  0
   -0.1847    9.4218   23.5443 C   0  0  0  0  0  0  0  0  0  0  0  0
    0.1479    8.1913   22.7991 C   0  0  0  0  0  0  0  0  0  0  0  0
    0.4703    9.1416   20.7136 C   0  0  0  0  0  0  0  0  0  0  0  0
   -0.3938   10.8011   25.5261 C   0  0  0  0  0  0  0  0  0  0  0  0
   -1.3477   14.1598   24.6554 C   0  0  0  0  0  0  0  0  0  0  0  0
    0.6598    8.6544   27.5439 Br  0  0  0  0  0  0  0  0  0  0  0  0
    1.0732    8.5390   21.8164 O   0  0  0  0  0  0  0  0  0  0  0  0
    0.9767    6.0231   23.1883 O   0  0  0  0  0  0  0  0  0  0  0  0
   -0.5296   11.8665   24.8257 N   0  0  0  0  0  0  0  0  0  0  0  0
   -0.8777   13.1084   25.3445 N   0  0  0  0  0  0  0  0  0  0  0  0
   -0.8040   13.4718   26.6261 C   0  0  0  0  0  0  0  0  0  0  0  0
   -1.2326   14.7478   26.7023 N   0  0  0  0  0  0  0  0  0  0  0  0
   -1.5588   15.1573   25.5132 N   0  0  0  0  0  0  0  0  0  0  0  0
   -1.6384   14.2045   22.8840 S   0  0  0  0  0  0  0  0  0  0  0  0
   -2.9259   15.4304   22.5259 C   0  0  0  0  0  0  0  0  0  0  0  0
   -0.3622   12.7142   27.7867 C   0  0  0  0  0  0  0  0  0  0  0  0
    0.9707   12.5836   28.1303 C   0  0  0  0  0  0  0  0  0  0  0  0
    1.3692   11.8569   29.2408 C   0  0  0  0  0  0  0  0  0  0  0  0
    0.4154   11.2556   30.0128 C   0  0  0  0  0  0  0  0  0  0  0  0
   -0.9149   11.3617   29.7054 C   0  0  0  0  0  0  0  0  0  0  0  0
   -1.2892   12.0955   28.5874 C   0  0  0  0  0  0  0  0  0  0  0  0
  2  1  1  0
  6  1  1  0
  1 12  2  0
  3  2  2  0
  4  3  1  0
  3 10  1  0
  4  5  2  0
  8  4  1  0
  5  6  1  0
  6 11  1  0
  7 11  1  6
 13  8  2  0
 14  9  1  0
  9 17  2  0
  9 18  1  0
 13 14  1  0
 14 15  1  0
 15 16  2  0
 15 20  1  0
 16 17  1  0
 19 18  1  6
 20 21  2  0
 20 25  1  0
 21 22  1  0
 22 23  2  0
 23 24  1  0
 24 25  2  0
M  END
$$$$
