
     RDKit          3D

 25 27  0  0  0  0  0  0  0  0999 V2000
    0.3359    7.4370   22.3757 C   0  0  0  0  0  0  0  0  0  0  0  0
    0.9438    7.3095   23.6887 C   0  0  0  0  0  0  0  0  0  0  0  0
    0.9269    8.3187   24.5404 C   0  0  0  0  0  0  0  0  0  0  0  0
    0.2951    9.5888   24.1808 C   0  0  0  0  0  0  0  0  0  0  0  0
   -0.2632    9.7454   23.0098 C   0  0  0  0  0  0  0  0  0  0  0  0
   -0.3073    8.6875   21.9722 C   0  0  0  0  0  0  0  0  0  0  0  0
   -0.7388   10.0494   20.1490 C   0  0  0  0  0  0  0  0  0  0  0  0
    0.3058   10.6789   25.1686 C   0  0  0  0  0  0  0  0  0  0  0  0
   -0.6055   13.8477   25.2077 C   0  0  0  0  0  0  0  0  0  0  0  0
    1.7292    8.1530   26.2754 Br  0  0  0  0  0  0  0  0  0  0  0  0
    0.1482    9.1544   20.7423 O   0  0  0  0  0  0  0  0  0  0  0  0
    0.3458    6.4754   21.5497 O   0  0  0  0  0  0  0  0  0  0  0  0
   -0.7184   11.4325   25.3489 N   0  0  0  0  0  0  0  0  0  0  0  0
   -0.6029   12.7052   25.9139 N   0  0  0  0  0  0  0  0  0  0  0  0
   -0.4753   12.9557   27.2219 C   0  0  0  0  0  0  0  0  0  0  0  0
   -0.3963   14.2921   27.3316 N   0  0  0  0  0  0  0  0  0  0  0  0
   -0.4751   14.8389   26.1090 N   0  0  0  0  0  0  0  0  0  0  0  0
   -0.7557   13.9669   23.4224 S   0  0  0  0  0  0  0  0  0  0  0  0
   -1.4468   15.5436   22.9255 C   0  0  0  0  0  0  0  0  0  0  0  0
   -0.4373   11.9355   28.2595 C   0  0  0  0  0  0  0  0  0  0  0  0
   -0.5851   10.6158   27.8961 C   0  0  0  0  0  0  0  0  0  0  0  0
   -0.5563    9.6186   28.8383 C   0  0  0  0  0  0  0  0  0  0  0  0
   -0.3763    9.9492   30.1681 C   0  0  0  0  0  0  0  0  0  0  0  0
   -0.2284   11.2644   30.5352 C   0  0  0  0  0  0  0  0  0  0  0  0
   -0.2574   12.2536   29.5966 C   0  0  0  0  0  0  0  0  0  0  0  0
  2  1  1  0
  6  1  1  0
  1 12  2  0
  3  2  2  0
  4  3  1  0
  3 10  1  0
  4  5  2  0
  8  4  1  0
  5  6  1  0
  6 11  1  0
 11  7  1  0
 13  8  2  0
 14  9  1  0
  9 17  2  0
  9 18  1  0
 13 14  1  0
 14 15  1  0
 15 16  2  0
 15 20  1  0
 16 17  1  0
 18 19  1  0
 20 21  2  0
 20 25  1  0
 21 22  1  0
 22 23  2  0
 23 24  1  0
 24 25  2  0
M  END
$$$$
