
     RDKit          3D

 25 27  0  0  0  0  0  0  0  0999 V2000
    0.1807    7.3891   22.9675 C   0  0  0  0  0  0  0  0  0  0  0  0
    0.7691    7.4159   24.2808 C   0  0  0  0  0  0  0  0  0  0  0  0
    0.7521    8.5230   24.9872 C   0  0  0  0  0  0  0  0  0  0  0  0
    0.1470    9.7437   24.4750 C   0  0  0  0  0  0  0  0  0  0  0  0
   -0.4000    9.7483   23.2737 C   0  0  0  0  0  0  0  0  0  0  0  0
   -0.4521    8.5789   22.3737 C   0  0  0  0  0  0  0  0  0  0  0  0
   -0.4900   10.0243   20.5666 C   0  0  0  0  0  0  0  0  0  0  0  0
    0.1674   10.9264   25.3142 C   0  0  0  0  0  0  0  0  0  0  0  0
   -0.9196   14.0993   25.0237 C   0  0  0  0  0  0  0  0  0  0  0  0
    1.5499    8.5026   26.7298 Br  0  0  0  0  0  0  0  0  0  0  0  0
    0.1564    8.9502   21.1759 O   0  0  0  0  0  0  0  0  0  0  0  0
    0.2121    6.3216   22.3197 O   0  0  0  0  0  0  0  0  0  0  0  0
   -0.8702   11.6793   25.3382 N   0  0  0  0  0  0  0  0  0  0  0  0
   -0.8753   12.9954   25.7859 N   0  0  0  0  0  0  0  0  0  0  0  0
   -0.8368   13.3910   27.0595 C   0  0  0  0  0  0  0  0  0  0  0  0
   -0.8583   14.7390   27.0574 N   0  0  0  0  0  0  0  0  0  0  0  0
   -0.9081   15.1604   25.8295 N   0  0  0  0  0  0  0  0  0  0  0  0
   -0.9831   14.1301   23.2295 S   0  0  0  0  0  0  0  0  0  0  0  0
   -1.0730   15.8526   22.6696 C   0  0  0  0  0  0  0  0  0  0  0  0
   -0.7815   12.6018   28.2802 C   0  0  0  0  0  0  0  0  0  0  0  0
   -1.2358   13.0754   29.4972 C   0  0  0  0  0  0  0  0  0  0  0  0
   -1.1733   12.3060   30.6480 C   0  0  0  0  0  0  0  0  0  0  0  0
   -0.6480   11.0468   30.5719 C   0  0  0  0  0  0  0  0  0  0  0  0
   -0.1876   10.5419   29.3852 C   0  0  0  0  0  0  0  0  0  0  0  0
   -0.2610   11.3325   28.2456 C   0  0  0  0  0  0  0  0  0  0  0  0
  2  1  1  0
  6  1  1  0
  1 12  2  0
  3  2  2  0
  4  3  1  0
  3 10  1  0
  4  5  2  0
  8  4  1  0
  5  6  1  0
  6 11  1  0
  7 11  1  6
 13  8  2  0
 14  9  1  0
  9 17  2  0
  9 18  1  0
 13 14  1  0
 14 15  1  0
 15 16  2  0
 15 20  1  0
 16 17  1  0
 19 18  1  6
 20 21  2  0
 20 25  1  0
 21 22  1  0
 22 23  2  0
 23 24  1  0
 24 25  2  0
M  END
$$$$
