
     RDKit          3D

 25 27  0  0  0  0  0  0  0  0999 V2000
    0.3459    7.3168   23.2468 C   0  0  0  0  0  0  0  0  0  0  0  0
    0.6051    7.2570   24.6747 C   0  0  0  0  0  0  0  0  0  0  0  0
    0.3432    8.2925   25.4514 C   0  0  0  0  0  0  0  0  0  0  0  0
   -0.2144    9.5241   24.8912 C   0  0  0  0  0  0  0  0  0  0  0  0
   -0.4624    9.6196   23.6118 C   0  0  0  0  0  0  0  0  0  0  0  0
   -0.2110    8.5270   22.6421 C   0  0  0  0  0  0  0  0  0  0  0  0
   -0.1861    9.8595   20.7477 C   0  0  0  0  0  0  0  0  0  0  0  0
   -0.4865   10.6460   25.8031 C   0  0  0  0  0  0  0  0  0  0  0  0
   -0.0967   13.0451   27.6449 C   0  0  0  0  0  0  0  0  0  0  0  0
    0.6846    8.2162   27.3380 Br  0  0  0  0  0  0  0  0  0  0  0  0
    0.5271    8.9703   21.5479 O   0  0  0  0  0  0  0  0  0  0  0  0
    0.5933    6.3295   22.4911 O   0  0  0  0  0  0  0  0  0  0  0  0
   -0.0748   11.8353   25.5470 N   0  0  0  0  0  0  0  0  0  0  0  0
   -0.4287   12.9231   26.3492 N   0  0  0  0  0  0  0  0  0  0  0  0
   -1.1392   13.9801   25.9395 C   0  0  0  0  0  0  0  0  0  0  0  0
   -1.2519   14.7819   27.0113 N   0  0  0  0  0  0  0  0  0  0  0  0
   -0.6193   14.2172   28.0510 N   0  0  0  0  0  0  0  0  0  0  0  0
    0.8544   11.8524   28.5921 S   0  0  0  0  0  0  0  0  0  0  0  0
    1.5738   12.5982   30.0538 C   0  0  0  0  0  0  0  0  0  0  0  0
   -1.6535   14.1579   24.5894 C   0  0  0  0  0  0  0  0  0  0  0  0
   -2.9317   14.6427   24.4265 C   0  0  0  0  0  0  0  0  0  0  0  0
   -3.4604   14.8272   23.1737 C   0  0  0  0  0  0  0  0  0  0  0  0
   -2.6951   14.5205   22.0645 C   0  0  0  0  0  0  0  0  0  0  0  0
   -1.4194   14.0365   22.2223 C   0  0  0  0  0  0  0  0  0  0  0  0
   -0.8965   13.8541   23.4687 C   0  0  0  0  0  0  0  0  0  0  0  0
  2  1  1  0
  6  1  1  0
  1 12  2  0
  3  2  2  0
  4  3  1  0
  3 10  1  0
  4  5  2  0
  8  4  1  0
  5  6  1  0
  6 11  1  0
 11  7  1  0
 13  8  2  0
 14  9  1  0
  9 17  2  0
  9 18  1  0
 13 14  1  0
 14 15  1  0
 15 16  2  0
 15 20  1  0
 16 17  1  0
 18 19  1  0
 20 21  2  0
 20 25  1  0
 21 22  1  0
 22 23  2  0
 23 24  1  0
 24 25  2  0
M  END
$$$$
