
     RDKit          3D

 25 27  0  0  0  0  0  0  0  0999 V2000
   -0.8050    9.2535   20.1552 C   0  0  0  0  0  0  0  0  0  0  0  0
    0.0905    8.5452   21.0531 C   0  0  0  0  0  0  0  0  0  0  0  0
    0.3516    9.0196   22.2576 C   0  0  0  0  0  0  0  0  0  0  0  0
   -0.2554   10.2700   22.7156 C   0  0  0  0  0  0  0  0  0  0  0  0
   -1.0666   10.9383   21.9392 C   0  0  0  0  0  0  0  0  0  0  0  0
   -1.4350   10.5072   20.5695 C   0  0  0  0  0  0  0  0  0  0  0  0
   -2.0792   12.6267   19.8929 C   0  0  0  0  0  0  0  0  0  0  0  0
    0.0710   10.7514   24.0668 C   0  0  0  0  0  0  0  0  0  0  0  0
   -0.4614   13.2441   26.1725 C   0  0  0  0  0  0  0  0  0  0  0  0
    1.5341    8.0859   23.4457 Br  0  0  0  0  0  0  0  0  0  0  0  0
   -1.2567   11.5309   19.6429 O   0  0  0  0  0  0  0  0  0  0  0  0
   -1.0632    8.8082   18.9968 O   0  0  0  0  0  0  0  0  0  0  0  0
   -0.8253   11.2586   24.8342 N   0  0  0  0  0  0  0  0  0  0  0  0
   -0.4897   11.9095   26.0242 N   0  0  0  0  0  0  0  0  0  0  0  0
   -0.1546   11.2977   27.1657 C   0  0  0  0  0  0  0  0  0  0  0  0
    0.0890   12.2802   28.0487 N   0  0  0  0  0  0  0  0  0  0  0  0
   -0.0964   13.4660   27.4489 N   0  0  0  0  0  0  0  0  0  0  0  0
   -0.8433   14.4418   24.8903 S   0  0  0  0  0  0  0  0  0  0  0  0
   -1.8027   15.8108   25.5352 C   0  0  0  0  0  0  0  0  0  0  0  0
   -0.0884    9.8543   27.3419 C   0  0  0  0  0  0  0  0  0  0  0  0
   -0.6793    9.0444   26.3983 C   0  0  0  0  0  0  0  0  0  0  0  0
   -0.6432    7.6781   26.5210 C   0  0  0  0  0  0  0  0  0  0  0  0
   -0.0038    7.1131   27.6082 C   0  0  0  0  0  0  0  0  0  0  0  0
    0.5871    7.9172   28.5520 C   0  0  0  0  0  0  0  0  0  0  0  0
    0.5497    9.2749   28.4275 C   0  0  0  0  0  0  0  0  0  0  0  0
  2  1  1  0
  6  1  1  0
  1 12  2  0
  3  2  2  0
  4  3  1  0
  3 10  1  0
  4  5  2  0
  8  4  1  0
  5  6  1  0
  6 11  1  0
 11  7  1  0
 13  8  2  0
 14  9  1  0
  9 17  2  0
  9 18  1  0
 13 14  1  0
 14 15  1  0
 15 16  2  0
 15 20  1  0
 16 17  1  0
 18 19  1  0
 20 21  2  0
 20 25  1  0
 21 22  1  0
 22 23  2  0
 23 24  1  0
 24 25  2  0
M  END
$$$$
