
     RDKit          3D

 25 27  0  0  0  0  0  0  0  0999 V2000
    0.1923    7.6123   25.9044 C   0  0  0  0  0  0  0  0  0  0  0  0
    0.8125    8.0770   27.1329 C   0  0  0  0  0  0  0  0  0  0  0  0
    0.7129    9.3411   27.5021 C   0  0  0  0  0  0  0  0  0  0  0  0
   -0.0246   10.3029   26.6818 C   0  0  0  0  0  0  0  0  0  0  0  0
   -0.5973    9.9261   25.5693 C   0  0  0  0  0  0  0  0  0  0  0  0
   -0.5550    8.5374   25.0523 C   0  0  0  0  0  0  0  0  0  0  0  0
   -0.9102    7.6238   22.9537 C   0  0  0  0  0  0  0  0  0  0  0  0
   -0.1030   11.6981   27.1414 C   0  0  0  0  0  0  0  0  0  0  0  0
   -0.7446   14.7072   25.7879 C   0  0  0  0  0  0  0  0  0  0  0  0
    1.5311    9.9577   29.1244 Br  0  0  0  0  0  0  0  0  0  0  0  0
   -0.1438    8.4960   23.7229 O   0  0  0  0  0  0  0  0  0  0  0  0
    0.2810    6.4015   25.5396 O   0  0  0  0  0  0  0  0  0  0  0  0
   -1.0233   12.4918   26.7260 N   0  0  0  0  0  0  0  0  0  0  0  0
   -0.8997   13.8793   26.8341 N   0  0  0  0  0  0  0  0  0  0  0  0
   -0.9188   14.5645   27.9830 C   0  0  0  0  0  0  0  0  0  0  0  0
   -0.7714   15.8551   27.6409 N   0  0  0  0  0  0  0  0  0  0  0  0
   -0.6651   15.9466   26.3066 N   0  0  0  0  0  0  0  0  0  0  0  0
   -0.6662   14.2043   24.0659 S   0  0  0  0  0  0  0  0  0  0  0  0
   -0.6460   15.6205   22.9685 C   0  0  0  0  0  0  0  0  0  0  0  0
   -1.0721   13.9654   29.3008 C   0  0  0  0  0  0  0  0  0  0  0  0
   -1.8227   14.6279   30.2459 C   0  0  0  0  0  0  0  0  0  0  0  0
   -1.9958   14.1029   31.5019 C   0  0  0  0  0  0  0  0  0  0  0  0
   -1.4066   12.8930   31.8167 C   0  0  0  0  0  0  0  0  0  0  0  0
   -0.6570   12.2287   30.8769 C   0  0  0  0  0  0  0  0  0  0  0  0
   -0.4866   12.7527   29.6293 C   0  0  0  0  0  0  0  0  0  0  0  0
  2  1  1  0
  6  1  1  0
  1 12  2  0
  3  2  2  0
  4  3  1  0
  3 10  1  0
  4  5  2  0
  8  4  1  0
  5  6  1  0
  6 11  1  0
 11  7  1  0
 13  8  2  0
 14  9  1  0
  9 17  2  0
  9 18  1  0
 13 14  1  0
 14 15  1  0
 15 16  2  0
 15 20  1  0
 16 17  1  0
 18 19  1  0
 20 21  2  0
 20 25  1  0
 21 22  1  0
 22 23  2  0
 23 24  1  0
 24 25  2  0
M  END
$$$$
