
     RDKit          3D

 25 27  0  0  0  0  0  0  0  0999 V2000
    0.5902    7.8024   22.6381 C   0  0  0  0  0  0  0  0  0  0  0  0
    0.6637    8.9553   21.7796 C   0  0  0  0  0  0  0  0  0  0  0  0
    0.4265   10.1528   22.2640 C   0  0  0  0  0  0  0  0  0  0  0  0
    0.0861   10.3538   23.6648 C   0  0  0  0  0  0  0  0  0  0  0  0
    0.0115    9.3145   24.4753 C   0  0  0  0  0  0  0  0  0  0  0  0
    0.2526    7.9162   24.0670 C   0  0  0  0  0  0  0  0  0  0  0  0
   -0.6000    6.0852   25.1969 C   0  0  0  0  0  0  0  0  0  0  0  0
   -0.1621   11.7064   24.1255 C   0  0  0  0  0  0  0  0  0  0  0  0
   -0.4229   13.3177   27.1820 C   0  0  0  0  0  0  0  0  0  0  0  0
    0.5382   11.6531   21.0764 Br  0  0  0  0  0  0  0  0  0  0  0  0
   -0.8893    7.1863   24.3928 O   0  0  0  0  0  0  0  0  0  0  0  0
    0.8209    6.6766   22.1487 O   0  0  0  0  0  0  0  0  0  0  0  0
   -0.7644   11.8722   25.2452 N   0  0  0  0  0  0  0  0  0  0  0  0
   -0.8358   13.0815   25.9270 N   0  0  0  0  0  0  0  0  0  0  0  0
   -1.3308   14.2241   25.4480 C   0  0  0  0  0  0  0  0  0  0  0  0
   -1.2125   15.1478   26.4230 N   0  0  0  0  0  0  0  0  0  0  0  0
   -0.6654   14.5971   27.4647 N   0  0  0  0  0  0  0  0  0  0  0  0
    0.3256   12.1116   28.2817 S   0  0  0  0  0  0  0  0  0  0  0  0
    0.2247   12.7217   29.9865 C   0  0  0  0  0  0  0  0  0  0  0  0
   -1.9070   14.5175   24.1449 C   0  0  0  0  0  0  0  0  0  0  0  0
   -2.2575   13.5293   23.2435 C   0  0  0  0  0  0  0  0  0  0  0  0
   -2.8052   13.8317   22.0071 C   0  0  0  0  0  0  0  0  0  0  0  0
   -3.0017   15.1427   21.6754 C   0  0  0  0  0  0  0  0  0  0  0  0
   -2.6674   16.1500   22.5408 C   0  0  0  0  0  0  0  0  0  0  0  0
   -2.1200   15.8215   23.7742 C   0  0  0  0  0  0  0  0  0  0  0  0
  2  1  1  0
  6  1  1  0
  1 12  2  0
  3  2  2  0
  4  3  1  0
  3 10  1  0
  4  5  2  0
  8  4  1  0
  5  6  1  0
  6 11  1  0
  7 11  1  6
 13  8  2  0
 14  9  1  0
  9 17  2  0
  9 18  1  0
 13 14  1  0
 14 15  1  0
 15 16  2  0
 15 20  1  0
 16 17  1  0
 19 18  1  6
 20 21  2  0
 20 25  1  0
 21 22  1  0
 22 23  2  0
 23 24  1  0
 24 25  2  0
M  END
$$$$
