
     RDKit          3D

 25 27  0  0  0  0  0  0  0  0999 V2000
    0.6195    8.9607   28.2888 C   0  0  0  0  0  0  0  0  0  0  0  0
    0.4939    8.0710   27.1644 C   0  0  0  0  0  0  0  0  0  0  0  0
    0.4270    8.5559   25.9457 C   0  0  0  0  0  0  0  0  0  0  0  0
    0.4767    9.9884   25.6924 C   0  0  0  0  0  0  0  0  0  0  0  0
    0.5915   10.8279   26.7047 C   0  0  0  0  0  0  0  0  0  0  0  0
    0.6769   10.4227   28.1220 C   0  0  0  0  0  0  0  0  0  0  0  0
    0.0136   12.3331   29.2475 C   0  0  0  0  0  0  0  0  0  0  0  0
    0.3971   10.4476   24.3190 C   0  0  0  0  0  0  0  0  0  0  0  0
    0.6394   13.1254   22.8328 C   0  0  0  0  0  0  0  0  0  0  0  0
    0.2604    7.3261   24.4851 Br  0  0  0  0  0  0  0  0  0  0  0  0
   -0.3570   11.0661   28.8001 O   0  0  0  0  0  0  0  0  0  0  0  0
    0.6808    8.4701   29.4359 O   0  0  0  0  0  0  0  0  0  0  0  0
   -0.4957   11.3156   24.0133 N   0  0  0  0  0  0  0  0  0  0  0  0
   -0.2301   12.6523   23.7392 N   0  0  0  0  0  0  0  0  0  0  0  0
   -0.7978   13.7029   24.3340 C   0  0  0  0  0  0  0  0  0  0  0  0
   -0.2639   14.8097   23.7794 N   0  0  0  0  0  0  0  0  0  0  0  0
    0.6007   14.4566   22.8762 N   0  0  0  0  0  0  0  0  0  0  0  0
    1.6716   12.1287   21.7533 S   0  0  0  0  0  0  0  0  0  0  0  0
    2.1105   13.1031   20.2882 C   0  0  0  0  0  0  0  0  0  0  0  0
   -1.8037   13.7496   25.3838 C   0  0  0  0  0  0  0  0  0  0  0  0
   -2.7388   14.7638   25.4778 C   0  0  0  0  0  0  0  0  0  0  0  0
   -3.6884   14.7883   26.4867 C   0  0  0  0  0  0  0  0  0  0  0  0
   -3.6961   13.7810   27.4101 C   0  0  0  0  0  0  0  0  0  0  0  0
   -2.7865   12.7590   27.3509 C   0  0  0  0  0  0  0  0  0  0  0  0
   -1.8446   12.7568   26.3303 C   0  0  0  0  0  0  0  0  0  0  0  0
  2  1  1  0
  6  1  1  0
  1 12  2  0
  3  2  2  0
  4  3  1  0
  3 10  1  0
  4  5  2  0
  8  4  1  0
  5  6  1  0
  6 11  1  0
  7 11  1  6
 13  8  2  0
 14  9  1  0
  9 17  2  0
  9 18  1  0
 13 14  1  0
 14 15  1  0
 15 16  2  0
 15 20  1  0
 16 17  1  0
 19 18  1  6
 20 21  2  0
 20 25  1  0
 21 22  1  0
 22 23  2  0
 23 24  1  0
 24 25  2  0
M  END
$$$$
