
     RDKit          3D

 25 27  0  0  0  0  0  0  0  0999 V2000
    0.3014    7.4127   22.2241 C   0  0  0  0  0  0  0  0  0  0  0  0
    0.5002    7.1912   23.6322 C   0  0  0  0  0  0  0  0  0  0  0  0
    0.1409    8.1092   24.5001 C   0  0  0  0  0  0  0  0  0  0  0  0
   -0.4618    9.3641   24.0754 C   0  0  0  0  0  0  0  0  0  0  0  0
   -0.6560    9.5944   22.7901 C   0  0  0  0  0  0  0  0  0  0  0  0
   -0.3012    8.6537   21.7087 C   0  0  0  0  0  0  0  0  0  0  0  0
   -0.1255   10.2318   20.0250 C   0  0  0  0  0  0  0  0  0  0  0  0
   -0.8320   10.3289   25.0930 C   0  0  0  0  0  0  0  0  0  0  0  0
   -1.4128   13.5994   25.0882 C   0  0  0  0  0  0  0  0  0  0  0  0
    0.4285    7.7621   26.3630 Br  0  0  0  0  0  0  0  0  0  0  0  0
    0.5544    9.3265   20.8381 O   0  0  0  0  0  0  0  0  0  0  0  0
    0.6531    6.5214   21.4228 O   0  0  0  0  0  0  0  0  0  0  0  0
   -0.2333   11.4626   25.1101 N   0  0  0  0  0  0  0  0  0  0  0  0
   -0.7440   12.6115   25.7032 N   0  0  0  0  0  0  0  0  0  0  0  0
   -0.6568   12.9326   26.9952 C   0  0  0  0  0  0  0  0  0  0  0  0
   -1.2772   14.1192   27.1523 N   0  0  0  0  0  0  0  0  0  0  0  0
   -1.7305   14.5163   26.0013 N   0  0  0  0  0  0  0  0  0  0  0  0
   -1.8061   13.6649   23.3374 S   0  0  0  0  0  0  0  0  0  0  0  0
   -2.6664   15.2211   22.9816 C   0  0  0  0  0  0  0  0  0  0  0  0
   -0.0359   12.2118   28.0957 C   0  0  0  0  0  0  0  0  0  0  0  0
    0.5689   12.8523   29.1614 C   0  0  0  0  0  0  0  0  0  0  0  0
    1.1545   12.1454   30.1995 C   0  0  0  0  0  0  0  0  0  0  0  0
    1.1306   10.7796   30.1635 C   0  0  0  0  0  0  0  0  0  0  0  0
    0.5413   10.1086   29.1253 C   0  0  0  0  0  0  0  0  0  0  0  0
   -0.0389   10.8395   28.0967 C   0  0  0  0  0  0  0  0  0  0  0  0
  2  1  1  0
  6  1  1  0
  1 12  2  0
  3  2  2  0
  4  3  1  0
  3 10  1  0
  4  5  2  0
  8  4  1  0
  5  6  1  0
  6 11  1  0
  7 11  1  6
 13  8  2  0
 14  9  1  0
  9 17  2  0
  9 18  1  0
 13 14  1  0
 14 15  1  0
 15 16  2  0
 15 20  1  0
 16 17  1  0
 19 18  1  6
 20 21  2  0
 20 25  1  0
 21 22  1  0
 22 23  2  0
 23 24  1  0
 24 25  2  0
M  END
$$$$
