
     RDKit          3D

 25 27  0  0  0  0  0  0  0  0999 V2000
    0.2658    7.8278   23.3250 C   0  0  0  0  0  0  0  0  0  0  0  0
    0.3185    7.9283   24.7731 C   0  0  0  0  0  0  0  0  0  0  0  0
    0.0221    9.0624   25.3814 C   0  0  0  0  0  0  0  0  0  0  0  0
   -0.3662   10.2442   24.6105 C   0  0  0  0  0  0  0  0  0  0  0  0
   -0.4261   10.1965   23.3060 C   0  0  0  0  0  0  0  0  0  0  0  0
   -0.1171    8.9829   22.5128 C   0  0  0  0  0  0  0  0  0  0  0  0
    0.5572    8.4946   20.3513 C   0  0  0  0  0  0  0  0  0  0  0  0
   -0.6855   11.4808   25.3404 C   0  0  0  0  0  0  0  0  0  0  0  0
   -2.2873   14.2888   25.0491 C   0  0  0  0  0  0  0  0  0  0  0  0
    0.0909    9.1979   27.2941 Br  0  0  0  0  0  0  0  0  0  0  0  0
    0.7950    9.2517   21.4959 O   0  0  0  0  0  0  0  0  0  0  0  0
    0.5480    6.7447   22.7298 O   0  0  0  0  0  0  0  0  0  0  0  0
   -0.5332   12.6371   24.8026 N   0  0  0  0  0  0  0  0  0  0  0  0
   -1.0828   13.7891   25.3710 N   0  0  0  0  0  0  0  0  0  0  0  0
   -0.4897   14.5430   26.3035 C   0  0  0  0  0  0  0  0  0  0  0  0
   -1.3503   15.5398   26.5688 N   0  0  0  0  0  0  0  0  0  0  0  0
   -2.4451   15.3891   25.8080 N   0  0  0  0  0  0  0  0  0  0  0  0
   -3.4161   13.5869   23.8418 S   0  0  0  0  0  0  0  0  0  0  0  0
   -4.6910   14.7570   23.3770 C   0  0  0  0  0  0  0  0  0  0  0  0
    0.8243   14.2761   26.8700 C   0  0  0  0  0  0  0  0  0  0  0  0
    1.2637   15.0533   27.9181 C   0  0  0  0  0  0  0  0  0  0  0  0
    2.4949   14.8397   28.4851 C   0  0  0  0  0  0  0  0  0  0  0  0
    3.3003   13.8299   27.9936 C   0  0  0  0  0  0  0  0  0  0  0  0
    2.8660   13.0521   26.9481 C   0  0  0  0  0  0  0  0  0  0  0  0
    1.6418   13.2665   26.3864 C   0  0  0  0  0  0  0  0  0  0  0  0
  2  1  1  0
  6  1  1  0
  1 12  2  0
  3  2  2  0
  4  3  1  0
  3 10  1  0
  4  5  2  0
  8  4  1  0
  5  6  1  0
  6 11  1  0
 11  7  1  0
 13  8  2  0
 14  9  1  0
  9 17  2  0
  9 18  1  0
 13 14  1  0
 14 15  1  0
 15 16  2  0
 15 20  1  0
 16 17  1  0
 18 19  1  0
 20 21  2  0
 20 25  1  0
 21 22  1  0
 22 23  2  0
 23 24  1  0
 24 25  2  0
M  END
$$$$
