
     RDKit          3D

 25 27  0  0  0  0  0  0  0  0999 V2000
   -0.0459    7.6133   24.4826 C   0  0  0  0  0  0  0  0  0  0  0  0
    0.5367    7.5439   25.8113 C   0  0  0  0  0  0  0  0  0  0  0  0
    0.4910    8.5849   26.6228 C   0  0  0  0  0  0  0  0  0  0  0  0
   -0.1478    9.8324   26.2019 C   0  0  0  0  0  0  0  0  0  0  0  0
   -0.6841    9.9370   25.0148 C   0  0  0  0  0  0  0  0  0  0  0  0
   -0.6950    8.8395   24.0183 C   0  0  0  0  0  0  0  0  0  0  0  0
   -1.1955    9.2124   21.7877 C   0  0  0  0  0  0  0  0  0  0  0  0
   -0.1696   10.9598   27.1467 C   0  0  0  0  0  0  0  0  0  0  0  0
   -0.8195   13.1699   29.0682 C   0  0  0  0  0  0  0  0  0  0  0  0
    1.2598    8.4959   28.3785 Br  0  0  0  0  0  0  0  0  0  0  0  0
   -0.2200    9.2642   22.7805 O   0  0  0  0  0  0  0  0  0  0  0  0
   -0.0082    6.6209   23.6948 O   0  0  0  0  0  0  0  0  0  0  0  0
   -0.9366   11.9738   26.9655 N   0  0  0  0  0  0  0  0  0  0  0  0
   -0.8049   13.1388   27.7255 N   0  0  0  0  0  0  0  0  0  0  0  0
   -0.6481   14.3691   27.2238 C   0  0  0  0  0  0  0  0  0  0  0  0
   -0.5627   15.1880   28.2851 N   0  0  0  0  0  0  0  0  0  0  0  0
   -0.6665   14.4629   29.4092 N   0  0  0  0  0  0  0  0  0  0  0  0
   -1.0083   11.7415   30.1399 S   0  0  0  0  0  0  0  0  0  0  0  0
   -1.3379   12.2294   31.8322 C   0  0  0  0  0  0  0  0  0  0  0  0
   -0.5905   14.6818   25.8033 C   0  0  0  0  0  0  0  0  0  0  0  0
    0.3717   14.0725   25.0298 C   0  0  0  0  0  0  0  0  0  0  0  0
    0.4654   14.3353   23.6862 C   0  0  0  0  0  0  0  0  0  0  0  0
   -0.4204   15.2242   23.1073 C   0  0  0  0  0  0  0  0  0  0  0  0
   -1.3820   15.8344   23.8751 C   0  0  0  0  0  0  0  0  0  0  0  0
   -1.4728   15.5713   25.2103 C   0  0  0  0  0  0  0  0  0  0  0  0
  2  1  1  0
  6  1  1  0
  1 12  2  0
  3  2  2  0
  4  3  1  0
  3 10  1  0
  4  5  2  0
  8  4  1  0
  5  6  1  0
  6 11  1  0
 11  7  1  0
 13  8  2  0
 14  9  1  0
  9 17  2  0
  9 18  1  0
 13 14  1  0
 14 15  1  0
 15 16  2  0
 15 20  1  0
 16 17  1  0
 18 19  1  0
 20 21  2  0
 20 25  1  0
 21 22  1  0
 22 23  2  0
 23 24  1  0
 24 25  2  0
M  END
$$$$
