
     RDKit          3D

 25 27  0  0  0  0  0  0  0  0999 V2000
   -0.8435   15.4193   26.8098 C   0  0  0  0  0  0  0  0  0  0  0  0
   -1.1386   14.1683   27.4575 C   0  0  0  0  0  0  0  0  0  0  0  0
   -1.1905   13.0597   26.7553 C   0  0  0  0  0  0  0  0  0  0  0  0
   -0.9549   13.0565   25.3190 C   0  0  0  0  0  0  0  0  0  0  0  0
   -0.6820   14.1892   24.6985 C   0  0  0  0  0  0  0  0  0  0  0  0
   -0.5924   15.5056   25.3614 C   0  0  0  0  0  0  0  0  0  0  0  0
   -1.3863   16.2965   23.3364 C   0  0  0  0  0  0  0  0  0  0  0  0
   -1.0294   11.7922   24.6122 C   0  0  0  0  0  0  0  0  0  0  0  0
   -0.4387   10.5562   21.5858 C   0  0  0  0  0  0  0  0  0  0  0  0
   -1.5876   11.4220   27.6685 Br  0  0  0  0  0  0  0  0  0  0  0  0
   -1.4977   16.3529   24.7246 O   0  0  0  0  0  0  0  0  0  0  0  0
   -0.8011   16.4569   27.5040 O   0  0  0  0  0  0  0  0  0  0  0  0
   -0.0745   11.4770   23.8167 N   0  0  0  0  0  0  0  0  0  0  0  0
   -0.1343   10.4442   22.8883 N   0  0  0  0  0  0  0  0  0  0  0  0
    0.1021    9.1542   23.1333 C   0  0  0  0  0  0  0  0  0  0  0  0
   -0.0621    8.4924   21.9703 N   0  0  0  0  0  0  0  0  0  0  0  0
   -0.3876    9.3409   21.0419 N   0  0  0  0  0  0  0  0  0  0  0  0
   -0.8433   12.0840   20.7335 S   0  0  0  0  0  0  0  0  0  0  0  0
   -1.7347   11.6906   19.2041 C   0  0  0  0  0  0  0  0  0  0  0  0
    0.4707    8.4930   24.3756 C   0  0  0  0  0  0  0  0  0  0  0  0
    0.6732    7.1281   24.4637 C   0  0  0  0  0  0  0  0  0  0  0  0
    1.0240    6.5190   25.6579 C   0  0  0  0  0  0  0  0  0  0  0  0
    1.1723    7.2927   26.7744 C   0  0  0  0  0  0  0  0  0  0  0  0
    0.9805    8.6477   26.7277 C   0  0  0  0  0  0  0  0  0  0  0  0
    0.6293    9.2348   25.5191 C   0  0  0  0  0  0  0  0  0  0  0  0
  2  1  1  0
  6  1  1  0
  1 12  2  0
  3  2  2  0
  4  3  1  0
  3 10  1  0
  4  5  2  0
  8  4  1  0
  5  6  1  0
  6 11  1  0
  7 11  1  6
 13  8  2  0
 14  9  1  0
  9 17  2  0
  9 18  1  0
 13 14  1  0
 14 15  1  0
 15 16  2  0
 15 20  1  0
 16 17  1  0
 19 18  1  6
 20 21  2  0
 20 25  1  0
 21 22  1  0
 22 23  2  0
 23 24  1  0
 24 25  2  0
M  END
$$$$
