
     RDKit          3D

 25 27  0  0  0  0  0  0  0  0999 V2000
    0.5532    7.6030   25.2393 C   0  0  0  0  0  0  0  0  0  0  0  0
    1.1110    7.8852   26.5504 C   0  0  0  0  0  0  0  0  0  0  0  0
    0.9746    9.0790   27.0984 C   0  0  0  0  0  0  0  0  0  0  0  0
    0.2582   10.1452   26.3972 C   0  0  0  0  0  0  0  0  0  0  0  0
   -0.2588    9.9332   25.2160 C   0  0  0  0  0  0  0  0  0  0  0  0
   -0.1710    8.6377   24.5009 C   0  0  0  0  0  0  0  0  0  0  0  0
   -0.7189    9.0996   22.2983 C   0  0  0  0  0  0  0  0  0  0  0  0
    0.1368   11.4554   27.0551 C   0  0  0  0  0  0  0  0  0  0  0  0
   -0.3771   14.5759   25.9283 C   0  0  0  0  0  0  0  0  0  0  0  0
    1.7105    9.4545   28.8302 Br  0  0  0  0  0  0  0  0  0  0  0  0
    0.2989    8.7991   23.2003 O   0  0  0  0  0  0  0  0  0  0  0  0
    0.6777    6.4611   24.7031 O   0  0  0  0  0  0  0  0  0  0  0  0
   -0.7522   12.3089   26.6938 N   0  0  0  0  0  0  0  0  0  0  0  0
   -0.5834   13.6795   26.9070 N   0  0  0  0  0  0  0  0  0  0  0  0
   -0.6040   14.2786   28.1030 C   0  0  0  0  0  0  0  0  0  0  0  0
   -0.4049   15.5847   27.8607 N   0  0  0  0  0  0  0  0  0  0  0  0
   -0.2664   15.7702   26.5391 N   0  0  0  0  0  0  0  0  0  0  0  0
   -0.2785   14.1985   24.1756 S   0  0  0  0  0  0  0  0  0  0  0  0
   -1.3362   15.2764   23.2113 C   0  0  0  0  0  0  0  0  0  0  0  0
   -0.8066   13.5900   29.3695 C   0  0  0  0  0  0  0  0  0  0  0  0
   -0.3726   14.1940   30.5281 C   0  0  0  0  0  0  0  0  0  0  0  0
   -0.5412   13.5841   31.7457 C   0  0  0  0  0  0  0  0  0  0  0  0
   -1.1554   12.3473   31.8038 C   0  0  0  0  0  0  0  0  0  0  0  0
   -1.5899   11.7411   30.6504 C   0  0  0  0  0  0  0  0  0  0  0  0
   -1.4210   12.3496   29.4415 C   0  0  0  0  0  0  0  0  0  0  0  0
  2  1  1  0
  6  1  1  0
  1 12  2  0
  3  2  2  0
  4  3  1  0
  3 10  1  0
  4  5  2  0
  8  4  1  0
  5  6  1  0
  6 11  1  0
 11  7  1  0
 13  8  2  0
 14  9  1  0
  9 17  2  0
  9 18  1  0
 13 14  1  0
 14 15  1  0
 15 16  2  0
 15 20  1  0
 16 17  1  0
 18 19  1  0
 20 21  2  0
 20 25  1  0
 21 22  1  0
 22 23  2  0
 23 24  1  0
 24 25  2  0
M  END
$$$$
