
     RDKit          3D

 25 27  0  0  0  0  0  0  0  0999 V2000
   -0.7091   10.9280   21.1279 C   0  0  0  0  0  0  0  0  0  0  0  0
   -0.7031    9.5249   21.5036 C   0  0  0  0  0  0  0  0  0  0  0  0
   -0.6406    9.1673   22.7734 C   0  0  0  0  0  0  0  0  0  0  0  0
   -0.5760   10.1765   23.8312 C   0  0  0  0  0  0  0  0  0  0  0  0
   -0.5791   11.4495   23.5364 C   0  0  0  0  0  0  0  0  0  0  0  0
   -0.6460   11.9721   22.1507 C   0  0  0  0  0  0  0  0  0  0  0  0
    0.2575   14.0251   22.7286 C   0  0  0  0  0  0  0  0  0  0  0  0
   -0.5078    9.7210   25.2284 C   0  0  0  0  0  0  0  0  0  0  0  0
    0.5425    8.6294   27.7827 C   0  0  0  0  0  0  0  0  0  0  0  0
   -0.6325    7.3147   23.2726 Br  0  0  0  0  0  0  0  0  0  0  0  0
    0.3562   12.9065   21.9046 O   0  0  0  0  0  0  0  0  0  0  0  0
   -0.7688   11.2835   19.9126 O   0  0  0  0  0  0  0  0  0  0  0  0
    0.1992   10.3405   26.1035 N   0  0  0  0  0  0  0  0  0  0  0  0
    0.2831    9.8981   27.4262 N   0  0  0  0  0  0  0  0  0  0  0  0
    0.1180   10.6705   28.5059 C   0  0  0  0  0  0  0  0  0  0  0  0
    0.2794    9.8586   29.5638 N   0  0  0  0  0  0  0  0  0  0  0  0
    0.5378    8.6160   29.1286 N   0  0  0  0  0  0  0  0  0  0  0  0
    0.8293    7.2676   26.6480 S   0  0  0  0  0  0  0  0  0  0  0  0
    2.5030    6.6424   26.7824 C   0  0  0  0  0  0  0  0  0  0  0  0
   -0.1754   12.0957   28.4662 C   0  0  0  0  0  0  0  0  0  0  0  0
   -0.0368   12.7671   27.2722 C   0  0  0  0  0  0  0  0  0  0  0  0
   -0.3017   14.1107   27.1852 C   0  0  0  0  0  0  0  0  0  0  0  0
   -0.7127   14.7939   28.3141 C   0  0  0  0  0  0  0  0  0  0  0  0
   -0.8523   14.1282   29.5073 C   0  0  0  0  0  0  0  0  0  0  0  0
   -0.5884   12.7926   29.5910 C   0  0  0  0  0  0  0  0  0  0  0  0
  2  1  1  0
  6  1  1  0
  1 12  2  0
  3  2  2  0
  4  3  1  0
  3 10  1  0
  4  5  2  0
  8  4  1  0
  5  6  1  0
  6 11  1  0
 11  7  1  0
 13  8  2  0
 14  9  1  0
  9 17  2  0
  9 18  1  0
 13 14  1  0
 14 15  1  0
 15 16  2  0
 15 20  1  0
 16 17  1  0
 18 19  1  0
 20 21  2  0
 20 25  1  0
 21 22  1  0
 22 23  2  0
 23 24  1  0
 24 25  2  0
M  END
$$$$
