
     RDKit          3D

 25 27  0  0  0  0  0  0  0  0999 V2000
    0.3878    7.5328   22.3602 C   0  0  0  0  0  0  0  0  0  0  0  0
    1.0418    7.4665   23.6554 C   0  0  0  0  0  0  0  0  0  0  0  0
    1.0160    8.4999   24.4774 C   0  0  0  0  0  0  0  0  0  0  0  0
    0.3278    9.7357   24.1020 C   0  0  0  0  0  0  0  0  0  0  0  0
   -0.2731    9.8370   22.9461 C   0  0  0  0  0  0  0  0  0  0  0  0
   -0.3124    8.7473   21.9419 C   0  0  0  0  0  0  0  0  0  0  0  0
   -0.6680   10.2741   20.2368 C   0  0  0  0  0  0  0  0  0  0  0  0
    0.3311   10.8550   25.0567 C   0  0  0  0  0  0  0  0  0  0  0  0
   -0.7440   13.9754   25.1402 C   0  0  0  0  0  0  0  0  0  0  0  0
    1.8790    8.4151   26.1890 Br  0  0  0  0  0  0  0  0  0  0  0  0
    0.0863    9.1922   20.6844 O   0  0  0  0  0  0  0  0  0  0  0  0
    0.4058    6.5475   21.5627 O   0  0  0  0  0  0  0  0  0  0  0  0
   -0.7224   11.5572   25.2726 N   0  0  0  0  0  0  0  0  0  0  0  0
   -0.6511   12.8323   25.8393 N   0  0  0  0  0  0  0  0  0  0  0  0
   -0.4823   13.0850   27.1422 C   0  0  0  0  0  0  0  0  0  0  0  0
   -0.4699   14.4234   27.2559 N   0  0  0  0  0  0  0  0  0  0  0  0
   -0.6288   14.9692   26.0406 N   0  0  0  0  0  0  0  0  0  0  0  0
   -0.9751   14.0923   23.3633 S   0  0  0  0  0  0  0  0  0  0  0  0
   -0.8364   15.7853   22.7931 C   0  0  0  0  0  0  0  0  0  0  0  0
   -0.3467   12.0649   28.1717 C   0  0  0  0  0  0  0  0  0  0  0  0
   -0.4064   10.7398   27.8026 C   0  0  0  0  0  0  0  0  0  0  0  0
   -0.2838    9.7425   28.7371 C   0  0  0  0  0  0  0  0  0  0  0  0
   -0.0981   10.0783   30.0648 C   0  0  0  0  0  0  0  0  0  0  0  0
   -0.0379   11.3989   30.4375 C   0  0  0  0  0  0  0  0  0  0  0  0
   -0.1601   12.3882   29.5066 C   0  0  0  0  0  0  0  0  0  0  0  0
  2  1  1  0
  6  1  1  0
  1 12  2  0
  3  2  2  0
  4  3  1  0
  3 10  1  0
  4  5  2  0
  8  4  1  0
  5  6  1  0
  6 11  1  0
 11  7  1  0
 13  8  2  0
 14  9  1  0
  9 17  2  0
  9 18  1  0
 13 14  1  0
 14 15  1  0
 15 16  2  0
 15 20  1  0
 16 17  1  0
 18 19  1  0
 20 21  2  0
 20 25  1  0
 21 22  1  0
 22 23  2  0
 23 24  1  0
 24 25  2  0
M  END
$$$$
