
     RDKit          3D

 25 27  0  0  0  0  0  0  0  0999 V2000
    0.7777    7.4272   22.8864 C   0  0  0  0  0  0  0  0  0  0  0  0
    0.6241    8.3111   21.7609 C   0  0  0  0  0  0  0  0  0  0  0  0
    0.3783    9.5866   21.9545 C   0  0  0  0  0  0  0  0  0  0  0  0
    0.2545   10.1434   23.2937 C   0  0  0  0  0  0  0  0  0  0  0  0
    0.3907    9.3561   24.3444 C   0  0  0  0  0  0  0  0  0  0  0  0
    0.6678    7.9075   24.2741 C   0  0  0  0  0  0  0  0  0  0  0  0
   -0.0167    7.0447   26.3097 C   0  0  0  0  0  0  0  0  0  0  0  0
   -0.0177   11.5617   23.4267 C   0  0  0  0  0  0  0  0  0  0  0  0
   -1.6841   14.1065   23.6367 C   0  0  0  0  0  0  0  0  0  0  0  0
    0.1828   10.7186   20.4202 Br  0  0  0  0  0  0  0  0  0  0  0  0
   -0.3479    7.2567   24.9724 O   0  0  0  0  0  0  0  0  0  0  0  0
    1.0109    6.2191   22.6707 O   0  0  0  0  0  0  0  0  0  0  0  0
   -0.8009   11.9506   24.3645 N   0  0  0  0  0  0  0  0  0  0  0  0
   -1.1932   13.2692   24.5638 N   0  0  0  0  0  0  0  0  0  0  0  0
   -1.1492   13.9348   25.7192 C   0  0  0  0  0  0  0  0  0  0  0  0
   -1.6166   15.1766   25.4803 N   0  0  0  0  0  0  0  0  0  0  0  0
   -1.9372   15.2748   24.2251 N   0  0  0  0  0  0  0  0  0  0  0  0
   -1.9499   13.7109   21.9054 S   0  0  0  0  0  0  0  0  0  0  0  0
   -2.8739   15.0618   21.1245 C   0  0  0  0  0  0  0  0  0  0  0  0
   -0.7021   13.4959   27.0321 C   0  0  0  0  0  0  0  0  0  0  0  0
   -0.8063   14.2885   28.1603 C   0  0  0  0  0  0  0  0  0  0  0  0
   -0.3738   13.8500   29.4015 C   0  0  0  0  0  0  0  0  0  0  0  0
    0.1690   12.6004   29.5073 C   0  0  0  0  0  0  0  0  0  0  0  0
    0.2893   11.7855   28.4134 C   0  0  0  0  0  0  0  0  0  0  0  0
   -0.1514   12.2477   27.1802 C   0  0  0  0  0  0  0  0  0  0  0  0
  2  1  1  0
  6  1  1  0
  1 12  2  0
  3  2  2  0
  4  3  1  0
  3 10  1  0
  4  5  2  0
  8  4  1  0
  5  6  1  0
  6 11  1  0
  7 11  1  6
 13  8  2  0
 14  9  1  0
  9 17  2  0
  9 18  1  0
 13 14  1  0
 14 15  1  0
 15 16  2  0
 15 20  1  0
 16 17  1  0
 19 18  1  6
 20 21  2  0
 20 25  1  0
 21 22  1  0
 22 23  2  0
 23 24  1  0
 24 25  2  0
M  END
$$$$
