
     RDKit          3D

 25 27  0  0  0  0  0  0  0  0999 V2000
    0.2025    7.4703   24.8548 C   0  0  0  0  0  0  0  0  0  0  0  0
    0.8031    7.4768   26.1773 C   0  0  0  0  0  0  0  0  0  0  0  0
    0.6804    8.5273   26.9684 C   0  0  0  0  0  0  0  0  0  0  0  0
   -0.0635    9.7090   26.5306 C   0  0  0  0  0  0  0  0  0  0  0  0
   -0.6193    9.7443   25.3485 C   0  0  0  0  0  0  0  0  0  0  0  0
   -0.5504    8.6290   24.3743 C   0  0  0  0  0  0  0  0  0  0  0  0
   -1.0546    9.8977   22.5031 C   0  0  0  0  0  0  0  0  0  0  0  0
   -0.1681   10.8503   27.4530 C   0  0  0  0  0  0  0  0  0  0  0  0
   -1.0075   12.9991   29.3857 C   0  0  0  0  0  0  0  0  0  0  0  0
    1.4728    8.5385   28.7158 Br  0  0  0  0  0  0  0  0  0  0  0  0
   -0.1254    9.0653   23.1224 O   0  0  0  0  0  0  0  0  0  0  0  0
    0.3134    6.4681   24.0866 O   0  0  0  0  0  0  0  0  0  0  0  0
   -1.0801   11.7440   27.3156 N   0  0  0  0  0  0  0  0  0  0  0  0
   -1.0558   12.9356   28.0449 N   0  0  0  0  0  0  0  0  0  0  0  0
   -1.0772   14.1624   27.5119 C   0  0  0  0  0  0  0  0  0  0  0  0
   -1.0411   15.0127   28.5511 N   0  0  0  0  0  0  0  0  0  0  0  0
   -0.9986   14.3095   29.6930 N   0  0  0  0  0  0  0  0  0  0  0  0
   -0.9649   11.5864   30.4934 S   0  0  0  0  0  0  0  0  0  0  0  0
   -1.4211   12.0477   32.1635 C   0  0  0  0  0  0  0  0  0  0  0  0
   -1.1293   14.4432   26.0845 C   0  0  0  0  0  0  0  0  0  0  0  0
   -1.7449   15.5988   25.6592 C   0  0  0  0  0  0  0  0  0  0  0  0
   -1.8190   15.9067   24.3240 C   0  0  0  0  0  0  0  0  0  0  0  0
   -1.2665   15.0417   23.3985 C   0  0  0  0  0  0  0  0  0  0  0  0
   -0.6513   13.8877   23.8183 C   0  0  0  0  0  0  0  0  0  0  0  0
   -0.5792   13.5841   25.1461 C   0  0  0  0  0  0  0  0  0  0  0  0
  2  1  1  0
  6  1  1  0
  1 12  2  0
  3  2  2  0
  4  3  1  0
  3 10  1  0
  4  5  2  0
  8  4  1  0
  5  6  1  0
  6 11  1  0
 11  7  1  0
 13  8  2  0
 14  9  1  0
  9 17  2  0
  9 18  1  0
 13 14  1  0
 14 15  1  0
 15 16  2  0
 15 20  1  0
 16 17  1  0
 18 19  1  0
 20 21  2  0
 20 25  1  0
 21 22  1  0
 22 23  2  0
 23 24  1  0
 24 25  2  0
M  END
$$$$
