
     RDKit          3D

 25 27  0  0  0  0  0  0  0  0999 V2000
    0.8338    8.0671   22.5489 C   0  0  0  0  0  0  0  0  0  0  0  0
    0.2507    9.1178   21.7330 C   0  0  0  0  0  0  0  0  0  0  0  0
   -0.2010   10.2288   22.2861 C   0  0  0  0  0  0  0  0  0  0  0  0
   -0.1243   10.4268   23.7341 C   0  0  0  0  0  0  0  0  0  0  0  0
    0.3928    9.5065   24.5043 C   0  0  0  0  0  0  0  0  0  0  0  0
    0.9315    8.2206   24.0006 C   0  0  0  0  0  0  0  0  0  0  0  0
    1.1760    6.7759   25.7945 C   0  0  0  0  0  0  0  0  0  0  0  0
   -0.6428   11.6837   24.2959 C   0  0  0  0  0  0  0  0  0  0  0  0
   -0.6964   14.6057   24.9753 C   0  0  0  0  0  0  0  0  0  0  0  0
   -0.9717   11.6183   21.2107 Br  0  0  0  0  0  0  0  0  0  0  0  0
    0.4026    7.1349   24.6932 O   0  0  0  0  0  0  0  0  0  0  0  0
    1.2706    6.9964   22.0295 O   0  0  0  0  0  0  0  0  0  0  0  0
   -0.0394   12.2912   25.2532 N   0  0  0  0  0  0  0  0  0  0  0  0
   -0.4885   13.5214   25.7402 N   0  0  0  0  0  0  0  0  0  0  0  0
   -0.7696   13.7833   27.0217 C   0  0  0  0  0  0  0  0  0  0  0  0
   -1.1634   15.0672   27.0540 N   0  0  0  0  0  0  0  0  0  0  0  0
   -1.1204   15.5714   25.8115 N   0  0  0  0  0  0  0  0  0  0  0  0
   -0.4425   14.6906   23.1997 S   0  0  0  0  0  0  0  0  0  0  0  0
    0.6268   16.0574   22.7539 C   0  0  0  0  0  0  0  0  0  0  0  0
   -0.6496   12.8218   28.1080 C   0  0  0  0  0  0  0  0  0  0  0  0
   -0.4500   11.4951   27.7987 C   0  0  0  0  0  0  0  0  0  0  0  0
   -0.3308   10.5518   28.7881 C   0  0  0  0  0  0  0  0  0  0  0  0
   -0.4130   10.9443   30.1107 C   0  0  0  0  0  0  0  0  0  0  0  0
   -0.6121   12.2667   30.4239 C   0  0  0  0  0  0  0  0  0  0  0  0
   -0.7302   13.2023   29.4384 C   0  0  0  0  0  0  0  0  0  0  0  0
  2  1  1  0
  6  1  1  0
  1 12  2  0
  3  2  2  0
  4  3  1  0
  3 10  1  0
  4  5  2  0
  8  4  1  0
  5  6  1  0
  6 11  1  0
 11  7  1  0
 13  8  2  0
 14  9  1  0
  9 17  2  0
  9 18  1  0
 13 14  1  0
 14 15  1  0
 15 16  2  0
 15 20  1  0
 16 17  1  0
 18 19  1  0
 20 21  2  0
 20 25  1  0
 21 22  1  0
 22 23  2  0
 23 24  1  0
 24 25  2  0
M  END
$$$$
