
     RDKit          3D

 25 27  0  0  0  0  0  0  0  0999 V2000
    0.2362    7.7875   22.6929 C   0  0  0  0  0  0  0  0  0  0  0  0
   -0.4335    8.8553   21.9980 C   0  0  0  0  0  0  0  0  0  0  0  0
   -0.7248    9.9700   22.6284 C   0  0  0  0  0  0  0  0  0  0  0  0
   -0.3859   10.1625   24.0308 C   0  0  0  0  0  0  0  0  0  0  0  0
    0.2286    9.2001   24.6931 C   0  0  0  0  0  0  0  0  0  0  0  0
    0.6149    7.8990   24.1116 C   0  0  0  0  0  0  0  0  0  0  0  0
    0.1369    7.1651   26.2538 C   0  0  0  0  0  0  0  0  0  0  0  0
   -0.7403   11.4213   24.6579 C   0  0  0  0  0  0  0  0  0  0  0  0
    0.0428   14.3538   25.2858 C   0  0  0  0  0  0  0  0  0  0  0  0
   -1.6170   11.3593   21.6550 Br  0  0  0  0  0  0  0  0  0  0  0  0
    0.0229    6.9052   24.8891 O   0  0  0  0  0  0  0  0  0  0  0  0
    0.5000    6.7393   22.0668 O   0  0  0  0  0  0  0  0  0  0  0  0
    0.0636   11.9244   25.5208 N   0  0  0  0  0  0  0  0  0  0  0  0
   -0.0195   13.2239   26.0075 N   0  0  0  0  0  0  0  0  0  0  0  0
   -0.1767   13.5745   27.2852 C   0  0  0  0  0  0  0  0  0  0  0  0
   -0.2083   14.9217   27.3262 N   0  0  0  0  0  0  0  0  0  0  0  0
   -0.0759   15.3859   26.1201 N   0  0  0  0  0  0  0  0  0  0  0  0
    0.2502   14.4476   23.5047 S   0  0  0  0  0  0  0  0  0  0  0  0
    0.0253   16.1663   22.9720 C   0  0  0  0  0  0  0  0  0  0  0  0
   -0.2996   12.7430   28.4724 C   0  0  0  0  0  0  0  0  0  0  0  0
    0.0677   13.1799   29.7318 C   0  0  0  0  0  0  0  0  0  0  0  0
   -0.0581   12.3704   30.8494 C   0  0  0  0  0  0  0  0  0  0  0  0
   -0.5590   11.1082   30.6968 C   0  0  0  0  0  0  0  0  0  0  0  0
   -0.9339   10.6390   29.4662 C   0  0  0  0  0  0  0  0  0  0  0  0
   -0.7982   11.4693   28.3612 C   0  0  0  0  0  0  0  0  0  0  0  0
  2  1  1  0
  6  1  1  0
  1 12  2  0
  3  2  2  0
  4  3  1  0
  3 10  1  0
  4  5  2  0
  8  4  1  0
  5  6  1  0
  6 11  1  0
  7 11  1  6
 13  8  2  0
 14  9  1  0
  9 17  2  0
  9 18  1  0
 13 14  1  0
 14 15  1  0
 15 16  2  0
 15 20  1  0
 16 17  1  0
 19 18  1  6
 20 21  2  0
 20 25  1  0
 21 22  1  0
 22 23  2  0
 23 24  1  0
 24 25  2  0
M  END
$$$$
