
     RDKit          3D

 25 27  0  0  0  0  0  0  0  0999 V2000
    0.1579    7.4291   23.7514 C   0  0  0  0  0  0  0  0  0  0  0  0
    0.8014    7.3626   25.0518 C   0  0  0  0  0  0  0  0  0  0  0  0
    0.7016    8.3654   25.9055 C   0  0  0  0  0  0  0  0  0  0  0  0
   -0.0598    9.5667   25.5608 C   0  0  0  0  0  0  0  0  0  0  0  0
   -0.6541    9.6669   24.4013 C   0  0  0  0  0  0  0  0  0  0  0  0
   -0.6138    8.6097   23.3629 C   0  0  0  0  0  0  0  0  0  0  0  0
   -1.1129   10.0874   21.6505 C   0  0  0  0  0  0  0  0  0  0  0  0
   -0.1375   10.6526   26.5501 C   0  0  0  0  0  0  0  0  0  0  0  0
   -0.9758   12.5854   28.6904 C   0  0  0  0  0  0  0  0  0  0  0  0
    1.5507    8.2803   27.6240 Br  0  0  0  0  0  0  0  0  0  0  0  0
   -0.2313    9.1192   22.1250 O   0  0  0  0  0  0  0  0  0  0  0  0
    0.2466    6.4731   22.9236 O   0  0  0  0  0  0  0  0  0  0  0  0
   -1.0747   11.5300   26.5128 N   0  0  0  0  0  0  0  0  0  0  0  0
   -1.0680   12.6472   27.3519 N   0  0  0  0  0  0  0  0  0  0  0  0
   -1.1518   13.9172   26.9398 C   0  0  0  0  0  0  0  0  0  0  0  0
   -1.1104   14.6661   28.0542 N   0  0  0  0  0  0  0  0  0  0  0  0
   -1.0034   13.8601   29.1215 N   0  0  0  0  0  0  0  0  0  0  0  0
   -0.8445   11.0770   29.6557 S   0  0  0  0  0  0  0  0  0  0  0  0
   -0.2832   11.4118   31.3240 C   0  0  0  0  0  0  0  0  0  0  0  0
   -1.2630   14.3296   25.5482 C   0  0  0  0  0  0  0  0  0  0  0  0
   -2.1374   15.3431   25.2260 C   0  0  0  0  0  0  0  0  0  0  0  0
   -2.2769   15.7664   23.9281 C   0  0  0  0  0  0  0  0  0  0  0  0
   -1.5274   15.1638   22.9356 C   0  0  0  0  0  0  0  0  0  0  0  0
   -0.6540   14.1523   23.2525 C   0  0  0  0  0  0  0  0  0  0  0  0
   -0.5172   13.7335   24.5433 C   0  0  0  0  0  0  0  0  0  0  0  0
  2  1  1  0
  6  1  1  0
  1 12  2  0
  3  2  2  0
  4  3  1  0
  3 10  1  0
  4  5  2  0
  8  4  1  0
  5  6  1  0
  6 11  1  0
 11  7  1  0
 13  8  2  0
 14  9  1  0
  9 17  2  0
  9 18  1  0
 13 14  1  0
 14 15  1  0
 15 16  2  0
 15 20  1  0
 16 17  1  0
 18 19  1  0
 20 21  2  0
 20 25  1  0
 21 22  1  0
 22 23  2  0
 23 24  1  0
 24 25  2  0
M  END
$$$$
