
     RDKit          3D

 25 27  0  0  0  0  0  0  0  0999 V2000
   -0.3118    8.4098   20.9883 C   0  0  0  0  0  0  0  0  0  0  0  0
   -0.1967    7.7098   22.2406 C   0  0  0  0  0  0  0  0  0  0  0  0
   -0.3812    8.3504   23.3722 C   0  0  0  0  0  0  0  0  0  0  0  0
   -0.7038    9.7695   23.3998 C   0  0  0  0  0  0  0  0  0  0  0  0
   -0.8156   10.4369   22.2664 C   0  0  0  0  0  0  0  0  0  0  0  0
   -0.6349    9.8451   20.9257 C   0  0  0  0  0  0  0  0  0  0  0  0
   -0.0711   11.8510   19.9182 C   0  0  0  0  0  0  0  0  0  0  0  0
   -0.8931   10.4072   24.6885 C   0  0  0  0  0  0  0  0  0  0  0  0
   -1.0335   13.4805   26.1071 C   0  0  0  0  0  0  0  0  0  0  0  0
   -0.2159    7.3695   25.0105 Br  0  0  0  0  0  0  0  0  0  0  0  0
    0.3611   10.5763   20.2806 O   0  0  0  0  0  0  0  0  0  0  0  0
   -0.1308    7.7737   19.9287 O   0  0  0  0  0  0  0  0  0  0  0  0
   -0.2476   11.4863   24.9396 N   0  0  0  0  0  0  0  0  0  0  0  0
   -0.4447   12.2750   26.0672 N   0  0  0  0  0  0  0  0  0  0  0  0
   -0.0802   11.9675   27.3132 C   0  0  0  0  0  0  0  0  0  0  0  0
   -0.4535   12.9956   28.1014 N   0  0  0  0  0  0  0  0  0  0  0  0
   -1.0269   13.9038   27.3705 N   0  0  0  0  0  0  0  0  0  0  0  0
   -1.7097   14.3619   24.6964 S   0  0  0  0  0  0  0  0  0  0  0  0
   -1.3122   16.1243   24.8532 C   0  0  0  0  0  0  0  0  0  0  0  0
    0.5922   10.7824   27.8229 C   0  0  0  0  0  0  0  0  0  0  0  0
    0.5626   10.4227   29.1576 C   0  0  0  0  0  0  0  0  0  0  0  0
    1.2105    9.2890   29.6214 C   0  0  0  0  0  0  0  0  0  0  0  0
    1.8951    8.5100   28.7316 C   0  0  0  0  0  0  0  0  0  0  0  0
    1.9479    8.8327   27.4019 C   0  0  0  0  0  0  0  0  0  0  0  0
    1.2904    9.9740   26.9614 C   0  0  0  0  0  0  0  0  0  0  0  0
  2  1  1  0
  6  1  1  0
  1 12  2  0
  3  2  2  0
  4  3  1  0
  3 10  1  0
  4  5  2  0
  8  4  1  0
  5  6  1  0
  6 11  1  0
  7 11  1  6
 13  8  2  0
 14  9  1  0
  9 17  2  0
  9 18  1  0
 13 14  1  0
 14 15  1  0
 15 16  2  0
 15 20  1  0
 16 17  1  0
 19 18  1  6
 20 21  2  0
 20 25  1  0
 21 22  1  0
 22 23  2  0
 23 24  1  0
 24 25  2  0
M  END
$$$$
