
     RDKit          3D

 25 27  0  0  0  0  0  0  0  0999 V2000
   -0.2903    8.2515   20.6930 C   0  0  0  0  0  0  0  0  0  0  0  0
    0.5696    7.7632   21.7389 C   0  0  0  0  0  0  0  0  0  0  0  0
    0.6836    8.4322   22.8633 C   0  0  0  0  0  0  0  0  0  0  0  0
   -0.0445    9.6723   23.0886 C   0  0  0  0  0  0  0  0  0  0  0  0
   -0.8404   10.1437   22.1468 C   0  0  0  0  0  0  0  0  0  0  0  0
   -1.0625    9.4969   20.8382 C   0  0  0  0  0  0  0  0  0  0  0  0
   -1.0273   11.7347   20.2488 C   0  0  0  0  0  0  0  0  0  0  0  0
    0.1332   10.3540   24.3563 C   0  0  0  0  0  0  0  0  0  0  0  0
   -0.5442   13.5428   25.5834 C   0  0  0  0  0  0  0  0  0  0  0  0
    1.8425    7.7367   24.2223 Br  0  0  0  0  0  0  0  0  0  0  0  0
   -0.7379   10.4295   19.8544 O   0  0  0  0  0  0  0  0  0  0  0  0
   -0.3782    7.5935   19.6349 O   0  0  0  0  0  0  0  0  0  0  0  0
   -0.6920   11.2825   24.6743 N   0  0  0  0  0  0  0  0  0  0  0  0
   -0.4807   12.2065   25.6912 N   0  0  0  0  0  0  0  0  0  0  0  0
   -0.1761   11.9223   26.9586 C   0  0  0  0  0  0  0  0  0  0  0  0
   -0.0572   13.0960   27.6112 N   0  0  0  0  0  0  0  0  0  0  0  0
   -0.2797   14.0684   26.7789 N   0  0  0  0  0  0  0  0  0  0  0  0
   -0.9211   14.4549   24.0833 S   0  0  0  0  0  0  0  0  0  0  0  0
   -1.1946   16.1977   24.5029 C   0  0  0  0  0  0  0  0  0  0  0  0
    0.0123   10.6334   27.6064 C   0  0  0  0  0  0  0  0  0  0  0  0
   -0.4716   10.3554   28.8714 C   0  0  0  0  0  0  0  0  0  0  0  0
   -0.2805    9.1201   29.4695 C   0  0  0  0  0  0  0  0  0  0  0  0
    0.4049    8.1553   28.7863 C   0  0  0  0  0  0  0  0  0  0  0  0
    0.8996    8.3922   27.5315 C   0  0  0  0  0  0  0  0  0  0  0  0
    0.6951    9.6382   26.9534 C   0  0  0  0  0  0  0  0  0  0  0  0
  2  1  1  0
  6  1  1  0
  1 12  2  0
  3  2  2  0
  4  3  1  0
  3 10  1  0
  4  5  2  0
  8  4  1  0
  5  6  1  0
  6 11  1  0
  7 11  1  6
 13  8  2  0
 14  9  1  0
  9 17  2  0
  9 18  1  0
 13 14  1  0
 14 15  1  0
 15 16  2  0
 15 20  1  0
 16 17  1  0
 19 18  1  6
 20 21  2  0
 20 25  1  0
 21 22  1  0
 22 23  2  0
 23 24  1  0
 24 25  2  0
M  END
$$$$
