
     RDKit          3D

 25 27  0  0  0  0  0  0  0  0999 V2000
    0.9075    8.7794   28.3604 C   0  0  0  0  0  0  0  0  0  0  0  0
    0.4020    7.9415   27.2870 C   0  0  0  0  0  0  0  0  0  0  0  0
   -0.0206    8.4766   26.1560 C   0  0  0  0  0  0  0  0  0  0  0  0
    0.0107    9.9262   25.9580 C   0  0  0  0  0  0  0  0  0  0  0  0
    0.4578   10.7159   26.8983 C   0  0  0  0  0  0  0  0  0  0  0  0
    0.9578   10.2336   28.2078 C   0  0  0  0  0  0  0  0  0  0  0  0
   -0.1881   12.1299   28.8831 C   0  0  0  0  0  0  0  0  0  0  0  0
   -0.4725   10.4673   24.6782 C   0  0  0  0  0  0  0  0  0  0  0  0
   -0.0681   10.8966   21.5431 C   0  0  0  0  0  0  0  0  0  0  0  0
   -0.6888    7.3720   24.7365 Br  0  0  0  0  0  0  0  0  0  0  0  0
    0.3562   10.9069   29.2675 O   0  0  0  0  0  0  0  0  0  0  0  0
    1.3158    8.2775   29.4505 O   0  0  0  0  0  0  0  0  0  0  0  0
    0.2820   11.1809   23.9226 N   0  0  0  0  0  0  0  0  0  0  0  0
   -0.1449   11.6254   22.6686 N   0  0  0  0  0  0  0  0  0  0  0  0
   -0.6828   12.8252   22.4216 C   0  0  0  0  0  0  0  0  0  0  0  0
   -0.9477   12.8425   21.1049 N   0  0  0  0  0  0  0  0  0  0  0  0
   -0.5755   11.6714   20.5664 N   0  0  0  0  0  0  0  0  0  0  0  0
    0.5890    9.2296   21.4257 S   0  0  0  0  0  0  0  0  0  0  0  0
    0.0218    8.4033   19.9405 C   0  0  0  0  0  0  0  0  0  0  0  0
   -0.9058   13.8543   23.4267 C   0  0  0  0  0  0  0  0  0  0  0  0
   -0.5342   15.1491   23.1423 C   0  0  0  0  0  0  0  0  0  0  0  0
   -0.7243   16.1534   24.0578 C   0  0  0  0  0  0  0  0  0  0  0  0
   -1.2967   15.8555   25.2799 C   0  0  0  0  0  0  0  0  0  0  0  0
   -1.6690   14.5652   25.5680 C   0  0  0  0  0  0  0  0  0  0  0  0
   -1.4789   13.5689   24.6562 C   0  0  0  0  0  0  0  0  0  0  0  0
  2  1  1  0
  6  1  1  0
  1 12  2  0
  3  2  2  0
  4  3  1  0
  3 10  1  0
  4  5  2  0
  8  4  1  0
  5  6  1  0
  6 11  1  0
 11  7  1  0
 13  8  2  0
 14  9  1  0
  9 17  2  0
  9 18  1  0
 13 14  1  0
 14 15  1  0
 15 16  2  0
 15 20  1  0
 16 17  1  0
 18 19  1  0
 20 21  2  0
 20 25  1  0
 21 22  1  0
 22 23  2  0
 23 24  1  0
 24 25  2  0
M  END
$$$$
