
     RDKit          3D

 25 27  0  0  0  0  0  0  0  0999 V2000
    0.3536    7.5837   22.4673 C   0  0  0  0  0  0  0  0  0  0  0  0
    0.4996    7.4466   23.8926 C   0  0  0  0  0  0  0  0  0  0  0  0
    0.0945    8.4074   24.6912 C   0  0  0  0  0  0  0  0  0  0  0  0
   -0.5073    9.6265   24.1714 C   0  0  0  0  0  0  0  0  0  0  0  0
   -0.6537    9.7794   22.8685 C   0  0  0  0  0  0  0  0  0  0  0  0
   -0.2443    8.7836   21.8580 C   0  0  0  0  0  0  0  0  0  0  0  0
    0.8280   10.7598   21.3094 C   0  0  0  0  0  0  0  0  0  0  0  0
   -0.9298   10.6424   25.1163 C   0  0  0  0  0  0  0  0  0  0  0  0
   -1.2108   13.8926   25.0564 C   0  0  0  0  0  0  0  0  0  0  0  0
    0.3130    8.1725   26.5809 Br  0  0  0  0  0  0  0  0  0  0  0  0
    0.6361    9.4183   20.9834 O   0  0  0  0  0  0  0  0  0  0  0  0
    0.7482    6.6532   21.7334 O   0  0  0  0  0  0  0  0  0  0  0  0
   -0.1959   11.6828   25.2672 N   0  0  0  0  0  0  0  0  0  0  0  0
   -0.6503   12.8991   25.7638 N   0  0  0  0  0  0  0  0  0  0  0  0
   -0.6074   13.2916   27.0382 C   0  0  0  0  0  0  0  0  0  0  0  0
   -1.1454   14.5266   27.0917 N   0  0  0  0  0  0  0  0  0  0  0  0
   -1.5071   14.8838   25.8961 N   0  0  0  0  0  0  0  0  0  0  0  0
   -1.5059   13.8786   23.2852 S   0  0  0  0  0  0  0  0  0  0  0  0
   -1.6309   15.5878   22.6923 C   0  0  0  0  0  0  0  0  0  0  0  0
   -0.1002   12.5972   28.2115 C   0  0  0  0  0  0  0  0  0  0  0  0
   -0.3340   13.0395   29.5005 C   0  0  0  0  0  0  0  0  0  0  0  0
    0.1591   12.3620   30.6041 C   0  0  0  0  0  0  0  0  0  0  0  0
    0.8950   11.2275   30.4073 C   0  0  0  0  0  0  0  0  0  0  0  0
    1.1482   10.7576   29.1463 C   0  0  0  0  0  0  0  0  0  0  0  0
    0.6432   11.4542   28.0561 C   0  0  0  0  0  0  0  0  0  0  0  0
  2  1  1  0
  6  1  1  0
  1 12  2  0
  3  2  2  0
  4  3  1  0
  3 10  1  0
  4  5  2  0
  8  4  1  0
  5  6  1  0
  6 11  1  0
  7 11  1  6
 13  8  2  0
 14  9  1  0
  9 17  2  0
  9 18  1  0
 13 14  1  0
 14 15  1  0
 15 16  2  0
 15 20  1  0
 16 17  1  0
 19 18  1  6
 20 21  2  0
 20 25  1  0
 21 22  1  0
 22 23  2  0
 23 24  1  0
 24 25  2  0
M  END
$$$$
