
     RDKit          3D

 25 27  0  0  0  0  0  0  0  0999 V2000
   -0.0476    7.5254   25.3441 C   0  0  0  0  0  0  0  0  0  0  0  0
    0.8520    7.7251   26.4498 C   0  0  0  0  0  0  0  0  0  0  0  0
    0.8945    8.8861   27.0623 C   0  0  0  0  0  0  0  0  0  0  0  0
    0.0464    9.9953   26.6513 C   0  0  0  0  0  0  0  0  0  0  0  0
   -0.7883    9.8406   25.6404 C   0  0  0  0  0  0  0  0  0  0  0  0
   -0.9399    8.5940   24.8638 C   0  0  0  0  0  0  0  0  0  0  0  0
    0.0567   10.0660   23.3818 C   0  0  0  0  0  0  0  0  0  0  0  0
    0.1505   11.2467   27.3769 C   0  0  0  0  0  0  0  0  0  0  0  0
   -0.1706   14.4820   26.5916 C   0  0  0  0  0  0  0  0  0  0  0  0
    2.1108    9.0971   28.5285 Br  0  0  0  0  0  0  0  0  0  0  0  0
   -0.7050    8.9076   23.5262 O   0  0  0  0  0  0  0  0  0  0  0  0
   -0.0656    6.4104   24.7814 O   0  0  0  0  0  0  0  0  0  0  0  0
   -0.7115   12.1661   27.1408 N   0  0  0  0  0  0  0  0  0  0  0  0
   -0.5294   13.5102   27.4451 N   0  0  0  0  0  0  0  0  0  0  0  0
   -0.6810   14.0702   28.6465 C   0  0  0  0  0  0  0  0  0  0  0  0
   -0.4110   15.3839   28.5093 N   0  0  0  0  0  0  0  0  0  0  0  0
   -0.1044   15.6266   27.2704 N   0  0  0  0  0  0  0  0  0  0  0  0
    0.1605   14.2664   24.8399 S   0  0  0  0  0  0  0  0  0  0  0  0
   -0.1949   15.8200   23.9746 C   0  0  0  0  0  0  0  0  0  0  0  0
   -1.0599   13.4679   29.9153 C   0  0  0  0  0  0  0  0  0  0  0  0
   -1.1163   14.1858   31.0957 C   0  0  0  0  0  0  0  0  0  0  0  0
   -1.4801   13.5915   32.2934 C   0  0  0  0  0  0  0  0  0  0  0  0
   -1.7900   12.2606   32.3022 C   0  0  0  0  0  0  0  0  0  0  0  0
   -1.7459   11.5156   31.1540 C   0  0  0  0  0  0  0  0  0  0  0  0
   -1.3785   12.1341   29.9660 C   0  0  0  0  0  0  0  0  0  0  0  0
  2  1  1  0
  6  1  1  0
  1 12  2  0
  3  2  2  0
  4  3  1  0
  3 10  1  0
  4  5  2  0
  8  4  1  0
  5  6  1  0
  6 11  1  0
  7 11  1  6
 13  8  2  0
 14  9  1  0
  9 17  2  0
  9 18  1  0
 13 14  1  0
 14 15  1  0
 15 16  2  0
 15 20  1  0
 16 17  1  0
 19 18  1  6
 20 21  2  0
 20 25  1  0
 21 22  1  0
 22 23  2  0
 23 24  1  0
 24 25  2  0
M  END
$$$$
