
     RDKit          3D

 25 27  0  0  0  0  0  0  0  0999 V2000
    0.1158    7.5305   24.2636 C   0  0  0  0  0  0  0  0  0  0  0  0
    0.7968    7.5259   25.5317 C   0  0  0  0  0  0  0  0  0  0  0  0
    0.9846    8.6515   26.1819 C   0  0  0  0  0  0  0  0  0  0  0  0
    0.5181    9.9241   25.6516 C   0  0  0  0  0  0  0  0  0  0  0  0
   -0.1096    9.9583   24.4909 C   0  0  0  0  0  0  0  0  0  0  0  0
   -0.3884    8.7732   23.6553 C   0  0  0  0  0  0  0  0  0  0  0  0
   -0.6692    9.7403   21.5715 C   0  0  0  0  0  0  0  0  0  0  0  0
    0.7629   11.1244   26.4280 C   0  0  0  0  0  0  0  0  0  0  0  0
    0.4194   14.2370   26.3714 C   0  0  0  0  0  0  0  0  0  0  0  0
    1.8974    8.5877   27.8661 Br  0  0  0  0  0  0  0  0  0  0  0  0
    0.1762    9.0071   22.4026 O   0  0  0  0  0  0  0  0  0  0  0  0
   -0.0480    6.4444   23.6688 O   0  0  0  0  0  0  0  0  0  0  0  0
   -0.2238   11.9029   26.6814 N   0  0  0  0  0  0  0  0  0  0  0  0
   -0.0960   13.2260   27.0882 N   0  0  0  0  0  0  0  0  0  0  0  0
   -0.4661   13.7227   28.2698 C   0  0  0  0  0  0  0  0  0  0  0  0
   -0.1699   15.0379   28.2582 N   0  0  0  0  0  0  0  0  0  0  0  0
    0.3630   15.3424   27.1131 N   0  0  0  0  0  0  0  0  0  0  0  0
    1.0699   14.1111   24.7024 S   0  0  0  0  0  0  0  0  0  0  0  0
    1.7108   15.7293   24.1932 C   0  0  0  0  0  0  0  0  0  0  0  0
   -1.0771   13.0587   29.4109 C   0  0  0  0  0  0  0  0  0  0  0  0
   -0.9578   11.6997   29.6362 C   0  0  0  0  0  0  0  0  0  0  0  0
   -1.5484   11.0878   30.7303 C   0  0  0  0  0  0  0  0  0  0  0  0
   -2.2663   11.8526   31.6060 C   0  0  0  0  0  0  0  0  0  0  0  0
   -2.4076   13.2015   31.4174 C   0  0  0  0  0  0  0  0  0  0  0  0
   -1.8062   13.7916   30.3133 C   0  0  0  0  0  0  0  0  0  0  0  0
  2  1  1  0
  6  1  1  0
  1 12  2  0
  3  2  2  0
  4  3  1  0
  3 10  1  0
  4  5  2  0
  8  4  1  0
  5  6  1  0
  6 11  1  0
  7 11  1  6
 13  8  2  0
 14  9  1  0
  9 17  2  0
  9 18  1  0
 13 14  1  0
 14 15  1  0
 15 16  2  0
 15 20  1  0
 16 17  1  0
 19 18  1  6
 20 21  2  0
 20 25  1  0
 21 22  1  0
 22 23  2  0
 23 24  1  0
 24 25  2  0
M  END
$$$$
