
     RDKit          3D

 25 27  0  0  0  0  0  0  0  0999 V2000
   -0.0384    7.1373   23.8680 C   0  0  0  0  0  0  0  0  0  0  0  0
    0.1050    7.3761   25.2801 C   0  0  0  0  0  0  0  0  0  0  0  0
   -0.2466    8.5338   25.7909 C   0  0  0  0  0  0  0  0  0  0  0  0
   -0.7856    9.6004   24.9600 C   0  0  0  0  0  0  0  0  0  0  0  0
   -0.9283    9.4093   23.6616 C   0  0  0  0  0  0  0  0  0  0  0  0
   -0.5749    8.1614   22.9559 C   0  0  0  0  0  0  0  0  0  0  0  0
   -0.2850    8.6763   20.7182 C   0  0  0  0  0  0  0  0  0  0  0  0
   -1.1513   10.8510   25.5970 C   0  0  0  0  0  0  0  0  0  0  0  0
   -1.6586   13.9199   25.1446 C   0  0  0  0  0  0  0  0  0  0  0  0
   -0.0343    8.7981   27.6774 Br  0  0  0  0  0  0  0  0  0  0  0  0
    0.3345    8.4952   21.9537 O   0  0  0  0  0  0  0  0  0  0  0  0
    0.3045    6.0264   23.4114 O   0  0  0  0  0  0  0  0  0  0  0  0
   -0.3790   11.8637   25.4486 N   0  0  0  0  0  0  0  0  0  0  0  0
   -0.7305   13.1718   25.7614 N   0  0  0  0  0  0  0  0  0  0  0  0
   -0.2020   13.9146   26.7355 C   0  0  0  0  0  0  0  0  0  0  0  0
   -0.8183   15.1131   26.6999 N   0  0  0  0  0  0  0  0  0  0  0  0
   -1.6943   15.1111   25.7405 N   0  0  0  0  0  0  0  0  0  0  0  0
   -2.6716   13.3966   23.7574 S   0  0  0  0  0  0  0  0  0  0  0  0
   -3.7158   14.7826   23.2307 C   0  0  0  0  0  0  0  0  0  0  0  0
    0.8379   13.5872   27.6987 C   0  0  0  0  0  0  0  0  0  0  0  0
    2.1632   13.9356   27.5145 C   0  0  0  0  0  0  0  0  0  0  0  0
    3.1376   13.6133   28.4456 C   0  0  0  0  0  0  0  0  0  0  0  0
    2.7732   12.9333   29.5734 C   0  0  0  0  0  0  0  0  0  0  0  0
    1.4710   12.5705   29.7920 C   0  0  0  0  0  0  0  0  0  0  0  0
    0.5127   12.9049   28.8441 C   0  0  0  0  0  0  0  0  0  0  0  0
  2  1  1  0
  6  1  1  0
  1 12  2  0
  3  2  2  0
  4  3  1  0
  3 10  1  0
  4  5  2  0
  8  4  1  0
  5  6  1  0
  6 11  1  0
  7 11  1  6
 13  8  2  0
 14  9  1  0
  9 17  2  0
  9 18  1  0
 13 14  1  0
 14 15  1  0
 15 16  2  0
 15 20  1  0
 16 17  1  0
 19 18  1  6
 20 21  2  0
 20 25  1  0
 21 22  1  0
 22 23  2  0
 23 24  1  0
 24 25  2  0
M  END
$$$$
