
     RDKit          3D

 24 26  0  0  0  0  0  0  0  0999 V2000
   30.9807   31.4683   65.4392 O   0  0  0  0  0  0  0  0  0  0  0  0
   30.6635   31.8645   66.7613 C   0  0  1  0  0  0  0  0  0  0  0  0
   29.6466   30.8266   67.2723 C   0  0  0  0  0  0  0  0  0  0  0  0
   31.9812   31.7771   67.5527 C   0  0  0  0  0  0  0  0  0  0  0  0
   30.0834   33.2825   66.8328 C   0  0  0  0  0  0  0  0  0  0  0  0
   28.9166   33.5279   67.5892 C   0  0  0  0  0  0  0  0  0  0  0  0
   28.3682   34.8219   67.6692 C   0  0  0  0  0  0  0  0  0  0  0  0
   28.9678   35.9112   66.9986 C   0  0  0  0  0  0  0  0  0  0  0  0
   28.3866   37.2675   67.0809 C   0  0  0  0  0  0  0  0  0  0  0  0
   29.2163   38.4127   67.1023 C   0  0  0  0  0  0  0  0  0  0  0  0
   28.6745   39.7159   67.1660 C   0  0  0  0  0  0  0  0  0  0  0  0
   29.5898   40.9397   67.2028 C   0  0  1  0  0  0  0  0  0  0  0  0
   30.2414   41.1247   68.5476 C   0  0  0  0  0  0  0  0  0  0  0  0
   31.3372   40.4199   68.8729 N   0  0  0  0  0  0  0  0  0  0  0  0
   29.6725   41.9096   69.4771 N   0  0  0  0  0  0  0  0  0  0  0  0
   30.6420   41.1121   66.0773 C   0  0  0  0  0  0  0  0  0  0  0  0
   29.6455   42.0018   65.3359 C   0  0  0  0  0  0  0  0  0  0  0  0
   29.0174   42.2895   66.6988 C   0  0  0  0  0  0  0  0  0  0  0  0
   27.2751   39.8732   67.2401 C   0  0  0  0  0  0  0  0  0  0  0  0
   26.4339   38.7462   67.2218 C   0  0  0  0  0  0  0  0  0  0  0  0
   24.7226   38.9476   67.3058 Cl  0  0  0  0  0  0  0  0  0  0  0  0
   26.9870   37.4551   67.1390 C   0  0  0  0  0  0  0  0  0  0  0  0
   30.1377   35.6626   66.2459 C   0  0  0  0  0  0  0  0  0  0  0  0
   30.6897   34.3699   66.1623 C   0  0  0  0  0  0  0  0  0  0  0  0
  2  1  1  6
  3  2  1  1
  4  2  1  1
  2  5  1  0
  5 24  2  0
  5  6  1  0
  6  7  2  0
  7  8  1  0
  8  9  1  0
  8 23  2  0
  9 22  1  0
  9 10  2  0
 10 11  1  0
 12 11  1  1
 11 19  2  0
 12 18  1  0
 12 13  1  0
 16 12  1  6
 13 14  1  0
 13 15  2  3
 17 16  1  6
 18 17  1  1
 19 20  1  0
 20 21  1  0
 20 22  2  0
 23 24  1  0
M  CHG  1  15   1
M  END
$$$$
