
     RDKit          3D

 34 37  0  0  0  0  0  0  0  0999 V2000
   21.4129   39.0627   -7.0496 C   0  0  0  0  0  0  0  0  0  0  0  0
   21.2807   38.2771   -8.1514 C   0  0  0  0  0  0  0  0  0  0  0  0
   20.0479   38.0151   -8.6863 C   0  0  0  0  0  0  0  0  0  0  0  0
   18.8860   38.5228   -8.1495 C   0  0  0  0  0  0  0  0  0  0  0  0
   19.0600   39.3219   -7.0236 C   0  0  0  0  0  0  0  0  0  0  0  0
   17.5308   38.2554   -8.7001 C   0  0  1  0  0  0  0  0  0  0  0  0
   17.2938   39.2134   -9.8176 C   0  0  2  0  0  0  0  0  0  0  0  0
   15.4545   39.7685   -6.0538 N   0  0  0  0  0  0  0  0  0  0  0  0
   20.5011   40.4098   -5.3212 N   0  0  0  0  0  0  0  0  0  0  0  0
   22.2835   43.7782   -0.1651 O   0  0  0  0  0  0  0  0  0  0  0  0
   15.8691   39.5369  -10.1017 C   0  0  0  0  0  0  0  0  0  0  0  0
   22.9852   42.2841   -3.3394 N   0  0  0  0  0  0  0  0  0  0  0  0
   15.8073   39.4618   -7.2572 C   0  0  0  0  0  0  0  0  0  0  0  0
   21.7596   40.7890   -4.8220 C   0  0  0  0  0  0  0  0  0  0  0  0
   21.8680   41.5757   -3.5703 C   0  0  0  0  0  0  0  0  0  0  0  0
   23.1301   43.0091   -2.2255 C   0  0  0  0  0  0  0  0  0  0  0  0
   22.1095   43.0229   -1.3050 C   0  0  0  0  0  0  0  0  0  0  0  0
   20.8714   41.6074   -2.6404 C   0  0  0  0  0  0  0  0  0  0  0  0
   17.4172   36.8424   -9.1925 C   0  0  0  0  0  0  0  0  0  0  0  0
   20.4372   44.1812    1.0639 F   0  0  0  0  0  0  0  0  0  0  0  0
   21.6343   43.4791    1.0629 C   0  0  0  0  0  0  0  0  0  0  0  0
   20.9886   42.3299   -1.5065 N   0  0  0  0  0  0  0  0  0  0  0  0
   22.8148   40.4906   -5.3914 O   0  0  0  0  0  0  0  0  0  0  0  0
   20.2745   39.6111   -6.4539 C   0  0  0  0  0  0  0  0  0  0  0  0
   19.9220   37.2297   -9.8002 F   0  0  0  0  0  0  0  0  0  0  0  0
   16.6306   38.3807   -7.5737 N   0  0  0  0  0  0  0  0  0  0  0  0
   15.2264   40.4621   -8.6519 S   0  0  0  0  0  0  0  0  0  0  0  0
   17.8709   38.6556  -11.0691 C   0  0  0  0  0  0  0  0  0  0  0  0
   17.4621   37.4757  -11.6549 C   0  0  0  0  0  0  0  0  0  0  0  0
   18.0028   36.9649  -12.8078 C   0  0  0  0  0  0  0  0  0  0  0  0
   19.0151   37.6543  -13.4352 C   0  0  0  0  0  0  0  0  0  0  0  0
   19.4611   38.8398  -12.8911 C   0  0  0  0  0  0  0  0  0  0  0  0
   18.8934   39.3363  -11.7174 C   0  0  0  0  0  0  0  0  0  0  0  0
   14.4416   39.8257   -5.8217 H   0  0  0  0  0  0  0  0  0  0  0  0
  1  2  2  0
 24  1  1  0
  2  3  1  0
  4  3  2  0
  3 25  1  0
  5  4  1  0
  4  6  1  0
 24  5  2  0
  6  7  1  0
  6 19  1  6
  6 26  1  0
  7 11  1  0
  7 28  1  6
 13  8  2  0
 14  9  1  0
  9 24  1  0
 17 10  1  0
 10 21  1  0
 11 27  1  0
 12 15  2  0
 16 12  1  0
 26 13  1  0
 13 27  1  0
 15 14  1  0
 14 23  2  0
 15 18  1  0
 16 17  2  0
 17 22  1  0
 18 22  2  0
 21 20  1  0
 28 29  2  0
 28 33  1  0
 29 30  1  0
 30 31  2  0
 31 32  1  0
 32 33  2  0
  8 34  1  0
M  END
$$$$
