
     RDKit          3D

 34 37  0  0  0  0  0  0  0  0999 V2000
   21.8333   38.7034   -7.2764 C   0  0  0  0  0  0  0  0  0  0  0  0
   21.5880   38.1933   -8.5127 C   0  0  0  0  0  0  0  0  0  0  0  0
   20.3083   38.0745   -8.9847 C   0  0  0  0  0  0  0  0  0  0  0  0
   19.2100   38.4576   -8.2481 C   0  0  0  0  0  0  0  0  0  0  0  0
   19.4992   38.9748   -6.9890 C   0  0  0  0  0  0  0  0  0  0  0  0
   17.8069   38.3383   -8.7262 C   0  0  1  0  0  0  0  0  0  0  0  0
   17.6271   39.2905   -9.8592 C   0  0  2  0  0  0  0  0  0  0  0  0
   16.0562   40.1483   -6.0312 N   0  0  0  0  0  0  0  0  0  0  0  0
   21.1065   39.6270   -5.2143 N   0  0  0  0  0  0  0  0  0  0  0  0
   21.6301   43.2600   -0.0151 O   0  0  0  0  0  0  0  0  0  0  0  0
   16.2373   39.7725  -10.0854 C   0  0  0  0  0  0  0  0  0  0  0  0
   20.9765   41.0282   -2.7340 N   0  0  0  0  0  0  0  0  0  0  0  0
   16.3101   39.7735   -7.2403 C   0  0  0  0  0  0  0  0  0  0  0  0
   21.8879   40.7720   -4.9789 C   0  0  0  0  0  0  0  0  0  0  0  0
   21.8440   41.4572   -3.6651 C   0  0  0  0  0  0  0  0  0  0  0  0
   20.8996   41.6134   -1.5345 C   0  0  0  0  0  0  0  0  0  0  0  0
   21.7290   42.6742   -1.2589 C   0  0  0  0  0  0  0  0  0  0  0  0
   22.6549   42.5113   -3.3651 C   0  0  0  0  0  0  0  0  0  0  0  0
   17.5051   36.9371   -9.1704 C   0  0  0  0  0  0  0  0  0  0  0  0
   19.4486   43.2688    0.5529 F   0  0  0  0  0  0  0  0  0  0  0  0
   20.6980   42.8288    0.9669 C   0  0  0  0  0  0  0  0  0  0  0  0
   22.6002   43.1224   -2.1629 N   0  0  0  0  0  0  0  0  0  0  0  0
   22.6339   41.2524   -5.8388 O   0  0  0  0  0  0  0  0  0  0  0  0
   20.7642   39.1124   -6.4754 C   0  0  0  0  0  0  0  0  0  0  0  0
   20.0684   37.5673  -10.2332 F   0  0  0  0  0  0  0  0  0  0  0  0
   16.9851   38.5957   -7.5628 N   0  0  0  0  0  0  0  0  0  0  0  0
   15.7802   40.8013   -8.6352 S   0  0  0  0  0  0  0  0  0  0  0  0
   18.0718   38.6388  -11.1193 C   0  0  0  0  0  0  0  0  0  0  0  0
   17.6854   37.3768  -11.5200 C   0  0  0  0  0  0  0  0  0  0  0  0
   18.1037   36.7801  -12.6824 C   0  0  0  0  0  0  0  0  0  0  0  0
   18.9606   37.4630  -13.5148 C   0  0  0  0  0  0  0  0  0  0  0  0
   19.3776   38.7286  -13.1612 C   0  0  0  0  0  0  0  0  0  0  0  0
   18.9366   39.3116  -11.9729 C   0  0  0  0  0  0  0  0  0  0  0  0
   15.0714   40.1417   -5.6948 H   0  0  0  0  0  0  0  0  0  0  0  0
  1  2  2  0
 24  1  1  0
  2  3  1  0
  4  3  2  0
  3 25  1  0
  5  4  1  0
  4  6  1  0
 24  5  2  0
  6  7  1  0
  6 19  1  6
  6 26  1  0
  7 11  1  0
  7 28  1  6
 13  8  2  0
 14  9  1  0
  9 24  1  0
 17 10  1  0
 10 21  1  0
 11 27  1  0
 12 15  2  0
 16 12  1  0
 26 13  1  0
 13 27  1  0
 15 14  1  0
 14 23  2  0
 15 18  1  0
 16 17  2  0
 17 22  1  0
 18 22  2  0
 21 20  1  0
 28 29  2  0
 28 33  1  0
 29 30  1  0
 30 31  2  0
 31 32  1  0
 32 33  2  0
  8 34  1  0
M  END
$$$$
