
     RDKit          3D

 34 37  0  0  0  0  0  0  0  0999 V2000
   21.6423   38.7454   -7.4695 C   0  0  0  0  0  0  0  0  0  0  0  0
   21.3234   38.2300   -8.7322 C   0  0  0  0  0  0  0  0  0  0  0  0
   20.0252   38.1514   -9.1803 C   0  0  0  0  0  0  0  0  0  0  0  0
   19.0310   38.6025   -8.3340 C   0  0  0  0  0  0  0  0  0  0  0  0
   19.3589   39.1050   -7.0996 C   0  0  0  0  0  0  0  0  0  0  0  0
   17.5879   38.5075   -8.7691 C   0  0  1  0  0  0  0  0  0  0  0  0
   17.2006   39.4971   -9.7818 C   0  0  2  0  0  0  0  0  0  0  0  0
   15.9398   39.4113   -5.6907 N   0  0  0  0  0  0  0  0  0  0  0  0
   20.9319   39.7250   -5.3386 N   0  0  0  0  0  0  0  0  0  0  0  0
   21.4885   43.3907   -0.0639 O   0  0  0  0  0  0  0  0  0  0  0  0
   16.7493   40.8438   -9.3469 C   0  0  0  0  0  0  0  0  0  0  0  0
   20.8747   41.0474   -2.8099 N   0  0  0  0  0  0  0  0  0  0  0  0
   16.0983   39.4084   -6.9678 C   0  0  0  0  0  0  0  0  0  0  0  0
   21.7839   40.7778   -5.0468 C   0  0  0  0  0  0  0  0  0  0  0  0
   21.7286   41.4896   -3.7386 C   0  0  0  0  0  0  0  0  0  0  0  0
   20.8034   41.6813   -1.6018 C   0  0  0  0  0  0  0  0  0  0  0  0
   21.5947   42.7729   -1.3133 C   0  0  0  0  0  0  0  0  0  0  0  0
   22.5156   42.5619   -3.4744 C   0  0  0  0  0  0  0  0  0  0  0  0
   17.5485   37.0931   -9.5129 C   0  0  0  0  0  0  0  0  0  0  0  0
   20.0984   44.9426    0.7711 F   0  0  0  0  0  0  0  0  0  0  0  0
   21.3082   44.7654    0.0974 C   0  0  0  0  0  0  0  0  0  0  0  0
   22.4443   43.1957   -2.2662 N   0  0  0  0  0  0  0  0  0  0  0  0
   22.6324   41.1772   -5.8601 O   0  0  0  0  0  0  0  0  0  0  0  0
   20.6785   39.1981   -6.6145 C   0  0  0  0  0  0  0  0  0  0  0  0
   19.7732   37.6522  -10.4315 F   0  0  0  0  0  0  0  0  0  0  0  0
   16.7293   38.3618   -7.6483 N   0  0  0  0  0  0  0  0  0  0  0  0
   15.5066   40.7731   -8.0074 S   0  0  0  0  0  0  0  0  0  0  0  0
   16.1866   38.9769  -10.7539 C   0  0  0  0  0  0  0  0  0  0  0  0
   14.9509   38.6129  -10.2524 C   0  0  0  0  0  0  0  0  0  0  0  0
   13.9574   38.1200  -11.0931 C   0  0  0  0  0  0  0  0  0  0  0  0
   14.2459   38.0088  -12.4293 C   0  0  0  0  0  0  0  0  0  0  0  0
   15.4751   38.3702  -12.9327 C   0  0  0  0  0  0  0  0  0  0  0  0
   16.4643   38.8618  -12.0902 C   0  0  0  0  0  0  0  0  0  0  0  0
   15.0013   39.6132   -5.3082 H   0  0  0  0  0  0  0  0  0  0  0  0
  1  2  2  0
 24  1  1  0
  2  3  1  0
  4  3  2  0
  3 25  1  0
  5  4  1  0
  6  4  1  1
 24  5  2  0
  6  7  1  0
 19  6  1  6
  6 26  1  0
  7 11  1  0
  7 28  1  1
 13  8  2  0
 14  9  1  0
  9 24  1  0
 17 10  1  0
 10 21  1  0
 11 27  1  6
 12 15  2  0
 16 12  1  0
 26 13  1  0
 13 27  1  0
 15 14  1  0
 14 23  2  0
 15 18  1  0
 16 17  2  0
 17 22  1  0
 18 22  2  0
 21 20  1  6
 28 29  2  0
 28 33  1  0
 29 30  1  0
 30 31  2  0
 31 32  1  0
 32 33  2  0
  8 34  1  0
M  END
$$$$
