
     RDKit          3D

 34 37  0  0  0  0  0  0  0  0999 V2000
   21.4504   38.1767   -7.6217 C   0  0  0  0  0  0  0  0  0  0  0  0
   21.0812   37.5985   -8.8427 C   0  0  0  0  0  0  0  0  0  0  0  0
   19.7747   37.5758   -9.2725 C   0  0  0  0  0  0  0  0  0  0  0  0
   18.8239   38.1487   -8.4505 C   0  0  0  0  0  0  0  0  0  0  0  0
   19.2008   38.7116   -7.2568 C   0  0  0  0  0  0  0  0  0  0  0  0
   17.3718   38.1201   -8.8648 C   0  0  1  0  0  0  0  0  0  0  0  0
   17.0202   39.1142   -9.8863 C   0  0  2  0  0  0  0  0  0  0  0  0
   15.8142   39.1469   -5.7778 N   0  0  0  0  0  0  0  0  0  0  0  0
   20.8348   39.3448   -5.5572 N   0  0  0  0  0  0  0  0  0  0  0  0
   21.8704   43.2122   -0.4474 O   0  0  0  0  0  0  0  0  0  0  0  0
   16.6426   40.4875   -9.4645 C   0  0  0  0  0  0  0  0  0  0  0  0
   22.2038   42.3995   -4.0022 N   0  0  0  0  0  0  0  0  0  0  0  0
   15.9544   39.1187   -7.0567 C   0  0  0  0  0  0  0  0  0  0  0  0
   21.6015   40.4834   -5.3693 C   0  0  0  0  0  0  0  0  0  0  0  0
   21.6583   41.1800   -4.0530 C   0  0  0  0  0  0  0  0  0  0  0  0
   22.2688   43.0608   -2.8085 C   0  0  0  0  0  0  0  0  0  0  0  0
   21.7831   42.4994   -1.6467 C   0  0  0  0  0  0  0  0  0  0  0  0
   21.1748   40.6104   -2.9213 C   0  0  0  0  0  0  0  0  0  0  0  0
   17.2515   36.6996   -9.5879 C   0  0  0  0  0  0  0  0  0  0  0  0
   20.5667   42.3866    1.1825 F   0  0  0  0  0  0  0  0  0  0  0  0
   20.7655   43.4950    0.3572 C   0  0  0  0  0  0  0  0  0  0  0  0
   21.2398   41.2718   -1.7276 N   0  0  0  0  0  0  0  0  0  0  0  0
   22.2762   40.9763   -6.2872 O   0  0  0  0  0  0  0  0  0  0  0  0
   20.5301   38.7498   -6.7913 C   0  0  0  0  0  0  0  0  0  0  0  0
   19.4734   37.0100  -10.4839 F   0  0  0  0  0  0  0  0  0  0  0  0
   16.5229   38.0328   -7.7307 N   0  0  0  0  0  0  0  0  0  0  0  0
   15.4169   40.4972   -8.1076 S   0  0  0  0  0  0  0  0  0  0  0  0
   15.9679   38.6323  -10.8372 C   0  0  0  0  0  0  0  0  0  0  0  0
   14.6951   38.4373  -10.3341 C   0  0  0  0  0  0  0  0  0  0  0  0
   13.6646   37.9900  -11.1557 C   0  0  0  0  0  0  0  0  0  0  0  0
   13.9548   37.7509  -12.4747 C   0  0  0  0  0  0  0  0  0  0  0  0
   15.2208   37.9439  -12.9795 C   0  0  0  0  0  0  0  0  0  0  0  0
   16.2469   38.3904  -12.1562 C   0  0  0  0  0  0  0  0  0  0  0  0
   15.0995   39.7727   -5.3712 H   0  0  0  0  0  0  0  0  0  0  0  0
  1  2  2  0
 24  1  1  0
  2  3  1  0
  4  3  2  0
  3 25  1  0
  5  4  1  0
  6  4  1  1
 24  5  2  0
  6  7  1  0
 19  6  1  6
  6 26  1  0
  7 11  1  0
  7 28  1  1
 13  8  2  0
 14  9  1  0
  9 24  1  0
 17 10  1  0
 10 21  1  0
 11 27  1  6
 12 15  2  0
 16 12  1  0
 26 13  1  0
 13 27  1  0
 15 14  1  0
 14 23  2  0
 15 18  1  0
 16 17  2  0
 17 22  1  0
 18 22  2  0
 21 20  1  6
 28 29  2  0
 28 33  1  0
 29 30  1  0
 30 31  2  0
 31 32  1  0
 32 33  2  0
  8 34  1  0
M  END
$$$$
