
     RDKit          3D

 34 37  0  0  0  0  0  0  0  0999 V2000
   21.6520   38.8418   -6.9533 C   0  0  0  0  0  0  0  0  0  0  0  0
   21.5095   38.3557   -8.2151 C   0  0  0  0  0  0  0  0  0  0  0  0
   20.2693   38.1936   -8.7720 C   0  0  0  0  0  0  0  0  0  0  0  0
   19.1099   38.5077   -8.0989 C   0  0  0  0  0  0  0  0  0  0  0  0
   19.2944   39.0022   -6.8114 C   0  0  0  0  0  0  0  0  0  0  0  0
   17.7470   38.3399   -8.6698 C   0  0  1  0  0  0  0  0  0  0  0  0
   17.5766   39.3512   -9.7519 C   0  0  2  0  0  0  0  0  0  0  0  0
   15.7351   39.8707   -5.9841 N   0  0  0  0  0  0  0  0  0  0  0  0
   20.7539   39.6755   -4.9206 N   0  0  0  0  0  0  0  0  0  0  0  0
   21.4439   43.3730    0.2150 O   0  0  0  0  0  0  0  0  0  0  0  0
   16.1758   39.7671  -10.0345 C   0  0  0  0  0  0  0  0  0  0  0  0
   20.8863   40.9161   -2.3254 N   0  0  0  0  0  0  0  0  0  0  0  0
   16.0816   39.5893   -7.1955 C   0  0  0  0  0  0  0  0  0  0  0  0
   21.8051   40.5321   -4.5489 C   0  0  0  0  0  0  0  0  0  0  0  0
   21.7326   41.3117   -3.2902 C   0  0  0  0  0  0  0  0  0  0  0  0
   20.7852   41.5860   -1.1729 C   0  0  0  0  0  0  0  0  0  0  0  0
   21.5671   42.7001   -0.9817 C   0  0  0  0  0  0  0  0  0  0  0  0
   22.4963   42.4202   -3.0740 C   0  0  0  0  0  0  0  0  0  0  0  0
   17.5571   36.9553   -9.2162 C   0  0  0  0  0  0  0  0  0  0  0  0
   21.3181   45.5781   -0.2359 F   0  0  0  0  0  0  0  0  0  0  0  0
   22.0584   44.6309    0.4576 C   0  0  0  0  0  0  0  0  0  0  0  0
   22.4163   43.1170   -1.9209 N   0  0  0  0  0  0  0  0  0  0  0  0
   22.8196   40.6734   -5.2399 O   0  0  0  0  0  0  0  0  0  0  0  0
   20.5165   39.1812   -6.2136 C   0  0  0  0  0  0  0  0  0  0  0  0
   20.1328   37.7110  -10.0455 F   0  0  0  0  0  0  0  0  0  0  0  0
   16.8444   38.4749   -7.5464 N   0  0  0  0  0  0  0  0  0  0  0  0
   15.5731   40.6730   -8.5557 S   0  0  0  0  0  0  0  0  0  0  0  0
   18.1330   38.8082  -11.0191 C   0  0  0  0  0  0  0  0  0  0  0  0
   19.1405   39.4080  -11.7456 C   0  0  0  0  0  0  0  0  0  0  0  0
   19.6457   38.9030  -12.9170 C   0  0  0  0  0  0  0  0  0  0  0  0
   19.1319   37.7281  -13.4163 C   0  0  0  0  0  0  0  0  0  0  0  0
   18.1232   37.0877  -12.7286 C   0  0  0  0  0  0  0  0  0  0  0  0
   17.6279   37.6236  -11.5396 C   0  0  0  0  0  0  0  0  0  0  0  0
   14.7277   39.8394   -5.7249 H   0  0  0  0  0  0  0  0  0  0  0  0
  1  2  2  0
 24  1  1  0
  2  3  1  0
  4  3  2  0
  3 25  1  0
  5  4  1  0
  4  6  1  0
 24  5  2  0
  6  7  1  0
  6 19  1  6
  6 26  1  0
  7 11  1  0
  7 28  1  6
 13  8  2  0
 14  9  1  0
  9 24  1  0
 17 10  1  0
 10 21  1  0
 11 27  1  0
 12 15  2  0
 16 12  1  0
 26 13  1  0
 13 27  1  0
 15 14  1  0
 14 23  2  0
 15 18  1  0
 16 17  2  0
 17 22  1  0
 18 22  2  0
 21 20  1  0
 28 29  2  0
 28 33  1  0
 29 30  1  0
 30 31  2  0
 31 32  1  0
 32 33  2  0
  8 34  1  0
M  END
$$$$
