
     RDKit          3D

 34 37  0  0  0  0  0  0  0  0999 V2000
   21.6242   38.4912   -7.2014 C   0  0  0  0  0  0  0  0  0  0  0  0
   21.3133   38.0081   -8.4338 C   0  0  0  0  0  0  0  0  0  0  0  0
   20.0117   37.9240   -8.8500 C   0  0  0  0  0  0  0  0  0  0  0  0
   18.9556   38.3170   -8.0587 C   0  0  0  0  0  0  0  0  0  0  0  0
   19.3115   38.8059   -6.8054 C   0  0  0  0  0  0  0  0  0  0  0  0
   17.5304   38.2352   -8.4754 C   0  0  1  0  0  0  0  0  0  0  0  0
   17.3106   39.2412   -9.5535 C   0  0  2  0  0  0  0  0  0  0  0  0
   15.9301   39.9356   -5.6203 N   0  0  0  0  0  0  0  0  0  0  0  0
   21.0097   39.3935   -5.0939 N   0  0  0  0  0  0  0  0  0  0  0  0
   21.6613   43.6423   -0.3362 O   0  0  0  0  0  0  0  0  0  0  0  0
   15.9180   39.7480   -9.6917 C   0  0  0  0  0  0  0  0  0  0  0  0
   22.4226   42.4789   -3.6328 N   0  0  0  0  0  0  0  0  0  0  0  0
   16.1228   39.6151   -6.8561 C   0  0  0  0  0  0  0  0  0  0  0  0
   21.9160   40.4463   -4.8768 C   0  0  0  0  0  0  0  0  0  0  0  0
   21.8296   41.2742   -3.6501 C   0  0  0  0  0  0  0  0  0  0  0  0
   22.3725   43.2621   -2.5505 C   0  0  0  0  0  0  0  0  0  0  0  0
   21.6983   42.8161   -1.4390 C   0  0  0  0  0  0  0  0  0  0  0  0
   21.1676   40.8566   -2.5338 C   0  0  0  0  0  0  0  0  0  0  0  0
   17.1904   36.8595   -8.9693 C   0  0  0  0  0  0  0  0  0  0  0  0
   20.9247   42.5520    1.4941 F   0  0  0  0  0  0  0  0  0  0  0  0
   20.6191   43.5926    0.6283 C   0  0  0  0  0  0  0  0  0  0  0  0
   21.0998   41.6249   -1.4262 N   0  0  0  0  0  0  0  0  0  0  0  0
   22.8104   40.7264   -5.6820 O   0  0  0  0  0  0  0  0  0  0  0  0
   20.6008   38.9082   -6.3468 C   0  0  0  0  0  0  0  0  0  0  0  0
   19.7057   37.4439  -10.0947 F   0  0  0  0  0  0  0  0  0  0  0  0
   16.7669   38.4466   -7.2641 N   0  0  0  0  0  0  0  0  0  0  0  0
   15.5420   40.7127   -8.1755 S   0  0  0  0  0  0  0  0  0  0  0  0
   17.6879   38.6445  -10.8619 C   0  0  0  0  0  0  0  0  0  0  0  0
   18.8102   38.9971  -11.5821 C   0  0  0  0  0  0  0  0  0  0  0  0
   19.1495   38.4450  -12.7914 C   0  0  0  0  0  0  0  0  0  0  0  0
   18.3360   37.4791  -13.3383 C   0  0  0  0  0  0  0  0  0  0  0  0
   17.2014   37.0899  -12.6588 C   0  0  0  0  0  0  0  0  0  0  0  0
   16.8801   37.6681  -11.4305 C   0  0  0  0  0  0  0  0  0  0  0  0
   14.9558   40.0403   -5.2700 H   0  0  0  0  0  0  0  0  0  0  0  0
  1  2  2  0
 24  1  1  0
  2  3  1  0
  4  3  2  0
  3 25  1  0
  5  4  1  0
  4  6  1  0
 24  5  2  0
  6  7  1  0
  6 19  1  6
  6 26  1  0
  7 11  1  0
  7 28  1  6
 13  8  2  0
 14  9  1  0
  9 24  1  0
 17 10  1  0
 10 21  1  0
 11 27  1  0
 12 15  2  0
 16 12  1  0
 26 13  1  0
 13 27  1  0
 15 14  1  0
 14 23  2  0
 15 18  1  0
 16 17  2  0
 17 22  1  0
 18 22  2  0
 21 20  1  0
 28 29  2  0
 28 33  1  0
 29 30  1  0
 30 31  2  0
 31 32  1  0
 32 33  2  0
  8 34  1  0
M  END
$$$$
