
     RDKit          3D

 34 37  0  0  0  0  0  0  0  0999 V2000
   21.4799   39.5272   -7.0824 C   0  0  0  0  0  0  0  0  0  0  0  0
   21.3423   38.6122   -8.0787 C   0  0  0  0  0  0  0  0  0  0  0  0
   20.1062   38.2806   -8.5651 C   0  0  0  0  0  0  0  0  0  0  0  0
   18.9463   38.8440   -8.0826 C   0  0  0  0  0  0  0  0  0  0  0  0
   19.1257   39.7755   -7.0645 C   0  0  0  0  0  0  0  0  0  0  0  0
   17.5876   38.5043   -8.5827 C   0  0  1  0  0  0  0  0  0  0  0  0
   17.2836   39.4068   -9.7299 C   0  0  2  0  0  0  0  0  0  0  0  0
   15.5284   40.0454   -5.9391 N   0  0  0  0  0  0  0  0  0  0  0  0
   20.5758   41.0707   -5.5223 N   0  0  0  0  0  0  0  0  0  0  0  0
   21.2221   43.4052    0.3746 O   0  0  0  0  0  0  0  0  0  0  0  0
   15.8402   39.6654   -9.9851 C   0  0  0  0  0  0  0  0  0  0  0  0
   20.6185   41.3246   -2.4728 N   0  0  0  0  0  0  0  0  0  0  0  0
   15.8595   39.7035   -7.1393 C   0  0  0  0  0  0  0  0  0  0  0  0
   21.6798   41.0764   -4.6517 C   0  0  0  0  0  0  0  0  0  0  0  0
   21.5849   41.7175   -3.3185 C   0  0  0  0  0  0  0  0  0  0  0  0
   20.4921   41.8725   -1.2599 C   0  0  0  0  0  0  0  0  0  0  0  0
   21.3737   42.8565   -0.8808 C   0  0  0  0  0  0  0  0  0  0  0  0
   22.4456   42.6954   -2.9167 C   0  0  0  0  0  0  0  0  0  0  0  0
   17.5147   37.0693   -9.0154 C   0  0  0  0  0  0  0  0  0  0  0  0
   21.7046   45.6070    0.4019 F   0  0  0  0  0  0  0  0  0  0  0  0
   20.6726   44.6980    0.5883 C   0  0  0  0  0  0  0  0  0  0  0  0
   22.3432   43.2673   -1.6985 N   0  0  0  0  0  0  0  0  0  0  0  0
   22.7608   40.5576   -4.9501 O   0  0  0  0  0  0  0  0  0  0  0  0
   20.3436   40.1384   -6.5467 C   0  0  0  0  0  0  0  0  0  0  0  0
   19.9749   37.3643   -9.5734 F   0  0  0  0  0  0  0  0  0  0  0  0
   16.7146   38.6418   -7.4365 N   0  0  0  0  0  0  0  0  0  0  0  0
   15.2027   40.6241   -8.5550 S   0  0  0  0  0  0  0  0  0  0  0  0
   17.8470   38.8205  -10.9745 C   0  0  0  0  0  0  0  0  0  0  0  0
   18.9067   39.3570  -11.6758 C   0  0  0  0  0  0  0  0  0  0  0  0
   19.4182   38.8125  -12.8266 C   0  0  0  0  0  0  0  0  0  0  0  0
   18.8564   37.6617  -13.3301 C   0  0  0  0  0  0  0  0  0  0  0  0
   17.7944   37.0843  -12.6672 C   0  0  0  0  0  0  0  0  0  0  0  0
   17.2939   37.6593  -11.4988 C   0  0  0  0  0  0  0  0  0  0  0  0
   14.5268   40.0070   -5.6594 H   0  0  0  0  0  0  0  0  0  0  0  0
  1  2  2  0
 24  1  1  0
  2  3  1  0
  4  3  2  0
  3 25  1  0
  5  4  1  0
  4  6  1  0
 24  5  2  0
  6  7  1  0
  6 19  1  6
  6 26  1  0
  7 11  1  0
  7 28  1  6
 13  8  2  0
 14  9  1  0
  9 24  1  0
 17 10  1  0
 10 21  1  0
 11 27  1  0
 12 15  2  0
 16 12  1  0
 26 13  1  0
 13 27  1  0
 15 14  1  0
 14 23  2  0
 15 18  1  0
 16 17  2  0
 17 22  1  0
 18 22  2  0
 21 20  1  0
 28 29  2  0
 28 33  1  0
 29 30  1  0
 30 31  2  0
 31 32  1  0
 32 33  2  0
  8 34  1  0
M  END
$$$$
