
     RDKit          3D

 34 37  0  0  0  0  0  0  0  0999 V2000
   21.7734   38.3428   -7.4423 C   0  0  0  0  0  0  0  0  0  0  0  0
   21.4416   37.8065   -8.6928 C   0  0  0  0  0  0  0  0  0  0  0  0
   20.1481   37.7960   -9.1609 C   0  0  0  0  0  0  0  0  0  0  0  0
   19.1721   38.3380   -8.3475 C   0  0  0  0  0  0  0  0  0  0  0  0
   19.5126   38.8599   -7.1246 C   0  0  0  0  0  0  0  0  0  0  0  0
   17.7328   38.3207   -8.8046 C   0  0  1  0  0  0  0  0  0  0  0  0
   17.4140   39.3321   -9.8197 C   0  0  2  0  0  0  0  0  0  0  0  0
   16.0882   39.3028   -5.7483 N   0  0  0  0  0  0  0  0  0  0  0  0
   21.0948   39.4373   -5.3574 N   0  0  0  0  0  0  0  0  0  0  0  0
   21.0047   43.3910   -0.2490 O   0  0  0  0  0  0  0  0  0  0  0  0
   17.0280   40.6997   -9.3870 C   0  0  0  0  0  0  0  0  0  0  0  0
   20.3589   41.8347   -3.5001 N   0  0  0  0  0  0  0  0  0  0  0  0
   16.2658   39.2947   -7.0229 C   0  0  0  0  0  0  0  0  0  0  0  0
   21.7298   40.6445   -5.1146 C   0  0  0  0  0  0  0  0  0  0  0  0
   21.5694   41.3668   -3.8209 C   0  0  0  0  0  0  0  0  0  0  0  0
   20.1835   42.5006   -2.3201 C   0  0  0  0  0  0  0  0  0  0  0  0
   21.2298   42.7041   -1.4455 C   0  0  0  0  0  0  0  0  0  0  0  0
   22.6115   41.5566   -2.9742 C   0  0  0  0  0  0  0  0  0  0  0  0
   17.6298   36.9123   -9.5537 C   0  0  0  0  0  0  0  0  0  0  0  0
   22.5231   44.9763    0.2192 F   0  0  0  0  0  0  0  0  0  0  0  0
   22.0254   43.7405    0.6366 C   0  0  0  0  0  0  0  0  0  0  0  0
   22.4360   42.2225   -1.7942 N   0  0  0  0  0  0  0  0  0  0  0  0
   22.4614   41.1806   -5.9622 O   0  0  0  0  0  0  0  0  0  0  0  0
   20.8278   38.8848   -6.6197 C   0  0  0  0  0  0  0  0  0  0  0  0
   19.8839   37.2718  -10.3994 F   0  0  0  0  0  0  0  0  0  0  0  0
   16.8507   38.2179   -7.6974 N   0  0  0  0  0  0  0  0  0  0  0  0
   15.7631   40.6916   -8.0667 S   0  0  0  0  0  0  0  0  0  0  0  0
   16.3887   38.8690  -10.8087 C   0  0  0  0  0  0  0  0  0  0  0  0
   15.1680   38.4504  -10.3128 C   0  0  0  0  0  0  0  0  0  0  0  0
   14.1655   38.0051  -11.1692 C   0  0  0  0  0  0  0  0  0  0  0  0
   14.4297   37.9964  -12.5150 C   0  0  0  0  0  0  0  0  0  0  0  0
   15.6438   38.4124  -13.0128 C   0  0  0  0  0  0  0  0  0  0  0  0
   16.6421   38.8562  -12.1546 C   0  0  0  0  0  0  0  0  0  0  0  0
   15.2511   39.7740   -5.3675 H   0  0  0  0  0  0  0  0  0  0  0  0
  1  2  2  0
 24  1  1  0
  2  3  1  0
  4  3  2  0
  3 25  1  0
  5  4  1  0
  6  4  1  1
 24  5  2  0
  6  7  1  0
 19  6  1  6
  6 26  1  0
  7 11  1  0
  7 28  1  1
 13  8  2  0
 14  9  1  0
  9 24  1  0
 17 10  1  0
 10 21  1  0
 11 27  1  6
 12 15  2  0
 16 12  1  0
 26 13  1  0
 13 27  1  0
 15 14  1  0
 14 23  2  0
 15 18  1  0
 16 17  2  0
 17 22  1  0
 18 22  2  0
 21 20  1  6
 28 29  2  0
 28 33  1  0
 29 30  1  0
 30 31  2  0
 31 32  1  0
 32 33  2  0
  8 34  1  0
M  END
$$$$
