
     RDKit          3D

 34 37  0  0  0  0  0  0  0  0999 V2000
   18.0671   41.7171  -11.8238 C   0  0  0  0  0  0  0  0  0  0  0  0
   19.0307   40.8980  -11.3244 C   0  0  0  0  0  0  0  0  0  0  0  0
   18.9322   40.3838  -10.0593 C   0  0  0  0  0  0  0  0  0  0  0  0
   17.8689   40.6606   -9.2295 C   0  0  0  0  0  0  0  0  0  0  0  0
   16.9030   41.5013   -9.7739 C   0  0  0  0  0  0  0  0  0  0  0  0
   17.7316   40.1245   -7.8491 C   0  0  1  0  0  0  0  0  0  0  0  0
   17.9839   38.6561   -7.9014 C   0  0  2  0  0  0  0  0  0  0  0  0
   14.0595   40.1729   -7.5061 N   0  0  0  0  0  0  0  0  0  0  0  0
   16.0131   42.8902  -11.6280 N   0  0  0  0  0  0  0  0  0  0  0  0
   10.5446   45.2848  -13.8341 O   0  0  0  0  0  0  0  0  0  0  0  0
   17.3392   37.8499   -6.8292 C   0  0  0  0  0  0  0  0  0  0  0  0
   13.4838   44.0900  -12.1806 N   0  0  0  0  0  0  0  0  0  0  0  0
   15.2593   39.7155   -7.3713 C   0  0  0  0  0  0  0  0  0  0  0  0
   15.3366   42.6505  -12.8370 C   0  0  0  0  0  0  0  0  0  0  0  0
   14.0586   43.3401  -13.1349 C   0  0  0  0  0  0  0  0  0  0  0  0
   12.3317   44.7312  -12.4011 C   0  0  0  0  0  0  0  0  0  0  0  0
   11.7318   44.6139  -13.6322 C   0  0  0  0  0  0  0  0  0  0  0  0
   13.4420   43.2412  -14.3468 C   0  0  0  0  0  0  0  0  0  0  0  0
   18.7005   40.7866   -6.9139 C   0  0  0  0  0  0  0  0  0  0  0  0
    9.2099   44.3706  -15.4039 F   0  0  0  0  0  0  0  0  0  0  0  0
    9.9848   45.4874  -15.1243 C   0  0  0  0  0  0  0  0  0  0  0  0
   12.2783   43.8768  -14.5992 N   0  0  0  0  0  0  0  0  0  0  0  0
   15.7663   41.8691  -13.6923 O   0  0  0  0  0  0  0  0  0  0  0  0
   16.9600   42.0392  -11.0351 C   0  0  0  0  0  0  0  0  0  0  0  0
   19.9017   39.5536   -9.5651 F   0  0  0  0  0  0  0  0  0  0  0  0
   16.4042   40.5114   -7.4209 N   0  0  0  0  0  0  0  0  0  0  0  0
   15.5258   37.9439   -7.0998 S   0  0  0  0  0  0  0  0  0  0  0  0
   19.4471   38.4090   -7.8110 C   0  0  0  0  0  0  0  0  0  0  0  0
   20.1349   37.5154   -8.6053 C   0  0  0  0  0  0  0  0  0  0  0  0
   21.4850   37.2894   -8.5129 C   0  0  0  0  0  0  0  0  0  0  0  0
   22.2179   37.9850   -7.5786 C   0  0  0  0  0  0  0  0  0  0  0  0
   21.5787   38.8908   -6.7592 C   0  0  0  0  0  0  0  0  0  0  0  0
   20.2044   39.1010   -6.8746 C   0  0  0  0  0  0  0  0  0  0  0  0
   13.3672   40.0114   -6.7461 H   0  0  0  0  0  0  0  0  0  0  0  0
  1  2  2  0
 24  1  1  0
  2  3  1  0
  4  3  2  0
  3 25  1  0
  5  4  1  0
  4  6  1  0
 24  5  2  0
  6  7  1  0
  6 19  1  1
  6 26  1  0
  7 11  1  0
  7 28  1  1
 13  8  2  0
 14  9  1  0
  9 24  1  0
 17 10  1  0
 10 21  1  0
 11 27  1  0
 12 15  2  0
 16 12  1  0
 26 13  1  0
 13 27  1  0
 15 14  1  0
 14 23  2  0
 15 18  1  0
 16 17  2  0
 17 22  1  0
 18 22  2  0
 21 20  1  0
 28 29  2  0
 28 33  1  0
 29 30  1  0
 30 31  2  0
 31 32  1  0
 32 33  2  0
  8 34  1  0
M  END
$$$$
