
     RDKit          3D

 34 37  0  0  0  0  0  0  0  0999 V2000
   21.5459   38.9486   -7.5844 C   0  0  0  0  0  0  0  0  0  0  0  0
   21.2490   37.9957   -8.5668 C   0  0  0  0  0  0  0  0  0  0  0  0
   19.9671   37.7958   -9.0239 C   0  0  0  0  0  0  0  0  0  0  0  0
   18.9668   38.5748   -8.4757 C   0  0  0  0  0  0  0  0  0  0  0  0
   19.2731   39.5046   -7.5137 C   0  0  0  0  0  0  0  0  0  0  0  0
   17.5388   38.3699   -8.9227 C   0  0  1  0  0  0  0  0  0  0  0  0
   17.0649   39.3664   -9.8909 C   0  0  2  0  0  0  0  0  0  0  0  0
   15.8112   38.9770   -5.8152 N   0  0  0  0  0  0  0  0  0  0  0  0
   20.8074   40.7025   -6.0405 N   0  0  0  0  0  0  0  0  0  0  0  0
   21.8534   43.0737   -0.0955 O   0  0  0  0  0  0  0  0  0  0  0  0
   16.4927   40.6451   -9.3968 C   0  0  0  0  0  0  0  0  0  0  0  0
   22.8288   42.2799   -3.5345 N   0  0  0  0  0  0  0  0  0  0  0  0
   15.9712   39.0477   -7.0901 C   0  0  0  0  0  0  0  0  0  0  0  0
   21.9429   40.8096   -5.2539 C   0  0  0  0  0  0  0  0  0  0  0  0
   21.8929   41.3910   -3.8825 C   0  0  0  0  0  0  0  0  0  0  0  0
   22.8067   42.8287   -2.2835 C   0  0  0  0  0  0  0  0  0  0  0  0
   21.8375   42.4872   -1.3643 C   0  0  0  0  0  0  0  0  0  0  0  0
   20.9309   41.0419   -2.9927 C   0  0  0  0  0  0  0  0  0  0  0  0
   17.6287   36.9938   -9.7312 C   0  0  0  0  0  0  0  0  0  0  0  0
   20.0411   43.8774    0.9571 F   0  0  0  0  0  0  0  0  0  0  0  0
   21.1637   44.2471    0.2140 C   0  0  0  0  0  0  0  0  0  0  0  0
   20.9089   41.5907   -1.7418 N   0  0  0  0  0  0  0  0  0  0  0  0
   23.0539   40.4268   -5.6538 O   0  0  0  0  0  0  0  0  0  0  0  0
   20.5758   39.7315   -7.0269 C   0  0  0  0  0  0  0  0  0  0  0  0
   19.7373   36.8597   -9.9982 F   0  0  0  0  0  0  0  0  0  0  0  0
   16.6954   38.0953   -7.8147 N   0  0  0  0  0  0  0  0  0  0  0  0
   15.2597   40.4002   -8.0690 S   0  0  0  0  0  0  0  0  0  0  0  0
   16.1035   38.8024  -10.8916 C   0  0  0  0  0  0  0  0  0  0  0  0
   15.5173   37.5855  -10.5968 C   0  0  0  0  0  0  0  0  0  0  0  0
   14.6147   36.9972  -11.4777 C   0  0  0  0  0  0  0  0  0  0  0  0
   14.3288   37.6633  -12.6419 C   0  0  0  0  0  0  0  0  0  0  0  0
   14.9103   38.8751  -12.9391 C   0  0  0  0  0  0  0  0  0  0  0  0
   15.8109   39.4593  -12.0573 C   0  0  0  0  0  0  0  0  0  0  0  0
   15.1920   39.6641   -5.3545 H   0  0  0  0  0  0  0  0  0  0  0  0
  1  2  2  0
 24  1  1  0
  2  3  1  0
  4  3  2  0
  3 25  1  0
  5  4  1  0
  6  4  1  1
 24  5  2  0
  6  7  1  0
 19  6  1  6
  6 26  1  0
  7 11  1  0
  7 28  1  1
 13  8  2  0
 14  9  1  0
  9 24  1  0
 17 10  1  0
 10 21  1  0
 11 27  1  6
 12 15  2  0
 16 12  1  0
 26 13  1  0
 13 27  1  0
 15 14  1  0
 14 23  2  0
 15 18  1  0
 16 17  2  0
 17 22  1  0
 18 22  2  0
 21 20  1  6
 28 29  2  0
 28 33  1  0
 29 30  1  0
 30 31  2  0
 31 32  1  0
 32 33  2  0
  8 34  1  0
M  END
$$$$
