
     RDKit          3D

 34 37  0  0  0  0  0  0  0  0999 V2000
   21.7264   39.4209   -7.0320 C   0  0  0  0  0  0  0  0  0  0  0  0
   21.6376   38.5673   -8.0866 C   0  0  0  0  0  0  0  0  0  0  0  0
   20.4238   38.2450   -8.6321 C   0  0  0  0  0  0  0  0  0  0  0  0
   19.2388   38.7572   -8.1535 C   0  0  0  0  0  0  0  0  0  0  0  0
   19.3684   39.6267   -7.0748 C   0  0  0  0  0  0  0  0  0  0  0  0
   17.9032   38.4256   -8.7171 C   0  0  1  0  0  0  0  0  0  0  0  0
   17.5904   39.4299   -9.7737 C   0  0  2  0  0  0  0  0  0  0  0  0
   15.7387   39.6199   -5.9798 N   0  0  0  0  0  0  0  0  0  0  0  0
   20.7445   40.8486   -5.4099 N   0  0  0  0  0  0  0  0  0  0  0  0
   21.5406   43.2012    0.4596 O   0  0  0  0  0  0  0  0  0  0  0  0
   16.1442   39.6654  -10.0350 C   0  0  0  0  0  0  0  0  0  0  0  0
   20.8648   41.1590   -2.3993 N   0  0  0  0  0  0  0  0  0  0  0  0
   16.1055   39.4134   -7.2004 C   0  0  0  0  0  0  0  0  0  0  0  0
   21.8893   40.9189   -4.5967 C   0  0  0  0  0  0  0  0  0  0  0  0
   21.8236   41.5473   -3.2557 C   0  0  0  0  0  0  0  0  0  0  0  0
   20.7646   41.6959   -1.1791 C   0  0  0  0  0  0  0  0  0  0  0  0
   21.6655   42.6636   -0.8035 C   0  0  0  0  0  0  0  0  0  0  0  0
   22.7040   42.5090   -2.8572 C   0  0  0  0  0  0  0  0  0  0  0  0
   17.8895   37.0406   -9.2946 C   0  0  0  0  0  0  0  0  0  0  0  0
   22.0644   45.3934    0.4232 F   0  0  0  0  0  0  0  0  0  0  0  0
   21.0314   44.5069    0.6935 C   0  0  0  0  0  0  0  0  0  0  0  0
   22.6281   43.0695   -1.6317 N   0  0  0  0  0  0  0  0  0  0  0  0
   22.9834   40.4692   -4.9536 O   0  0  0  0  0  0  0  0  0  0  0  0
   20.5624   39.9778   -6.4967 C   0  0  0  0  0  0  0  0  0  0  0  0
   20.3417   37.3910   -9.6985 F   0  0  0  0  0  0  0  0  0  0  0  0
   17.0032   38.4164   -7.5836 N   0  0  0  0  0  0  0  0  0  0  0  0
   15.4449   40.4515   -8.5304 S   0  0  0  0  0  0  0  0  0  0  0  0
   18.1987   38.9927  -11.0578 C   0  0  0  0  0  0  0  0  0  0  0  0
   18.2938   37.6783  -11.4650 C   0  0  0  0  0  0  0  0  0  0  0  0
   18.8608   37.2822  -12.6499 C   0  0  0  0  0  0  0  0  0  0  0  0
   19.3722   38.2364  -13.4994 C   0  0  0  0  0  0  0  0  0  0  0  0
   19.3025   39.5655  -13.1401 C   0  0  0  0  0  0  0  0  0  0  0  0
   18.7204   39.9405  -11.9290 C   0  0  0  0  0  0  0  0  0  0  0  0
   14.7301   39.5455   -5.7343 H   0  0  0  0  0  0  0  0  0  0  0  0
  1  2  2  0
 24  1  1  0
  2  3  1  0
  4  3  2  0
  3 25  1  0
  5  4  1  0
  4  6  1  0
 24  5  2  0
  6  7  1  0
  6 19  1  6
  6 26  1  0
  7 11  1  0
  7 28  1  6
 13  8  2  0
 14  9  1  0
  9 24  1  0
 17 10  1  0
 10 21  1  0
 11 27  1  0
 12 15  2  0
 16 12  1  0
 26 13  1  0
 13 27  1  0
 15 14  1  0
 14 23  2  0
 15 18  1  0
 16 17  2  0
 17 22  1  0
 18 22  2  0
 21 20  1  0
 28 29  2  0
 28 33  1  0
 29 30  1  0
 30 31  2  0
 31 32  1  0
 32 33  2  0
  8 34  1  0
M  END
$$$$
