
     RDKit          3D

 34 37  0  0  0  0  0  0  0  0999 V2000
   21.7624   39.0467   -6.9147 C   0  0  0  0  0  0  0  0  0  0  0  0
   21.6603   38.4831   -8.1479 C   0  0  0  0  0  0  0  0  0  0  0  0
   20.4370   38.2453   -8.7149 C   0  0  0  0  0  0  0  0  0  0  0  0
   19.2551   38.5571   -8.0811 C   0  0  0  0  0  0  0  0  0  0  0  0
   19.3985   39.1322   -6.8220 C   0  0  0  0  0  0  0  0  0  0  0  0
   17.9097   38.3086   -8.6638 C   0  0  1  0  0  0  0  0  0  0  0  0
   17.6751   39.3293   -9.7249 C   0  0  2  0  0  0  0  0  0  0  0  0
   15.7846   39.6377   -5.9581 N   0  0  0  0  0  0  0  0  0  0  0  0
   20.7984   39.9656   -4.9501 N   0  0  0  0  0  0  0  0  0  0  0  0
   21.8427   43.3391    0.3465 O   0  0  0  0  0  0  0  0  0  0  0  0
   16.2502   39.6538  -10.0070 C   0  0  0  0  0  0  0  0  0  0  0  0
   21.0848   41.0410   -2.2889 N   0  0  0  0  0  0  0  0  0  0  0  0
   16.1553   39.4076   -7.1732 C   0  0  0  0  0  0  0  0  0  0  0  0
   21.9167   40.7213   -4.5563 C   0  0  0  0  0  0  0  0  0  0  0  0
   21.9216   41.4407   -3.2602 C   0  0  0  0  0  0  0  0  0  0  0  0
   21.0522   41.6577   -1.1032 C   0  0  0  0  0  0  0  0  0  0  0  0
   21.8958   42.7205   -0.8842 C   0  0  0  0  0  0  0  0  0  0  0  0
   22.7474   42.4976   -3.0161 C   0  0  0  0  0  0  0  0  0  0  0  0
   17.8184   36.9265   -9.2412 C   0  0  0  0  0  0  0  0  0  0  0  0
   22.8396   45.3125    0.7865 F   0  0  0  0  0  0  0  0  0  0  0  0
   21.6120   44.7329    0.4981 C   0  0  0  0  0  0  0  0  0  0  0  0
   22.7373   43.1401   -1.8291 N   0  0  0  0  0  0  0  0  0  0  0  0
   22.9291   40.8200   -5.2578 O   0  0  0  0  0  0  0  0  0  0  0  0
   20.6024   39.3886   -6.2154 C   0  0  0  0  0  0  0  0  0  0  0  0
   20.3410   37.6846   -9.9599 F   0  0  0  0  0  0  0  0  0  0  0  0
   16.9948   38.3564   -7.5433 N   0  0  0  0  0  0  0  0  0  0  0  0
   15.5796   40.4834   -8.5127 S   0  0  0  0  0  0  0  0  0  0  0  0
   18.2735   38.8538  -11.0001 C   0  0  0  0  0  0  0  0  0  0  0  0
   17.9398   37.6680  -11.6206 C   0  0  0  0  0  0  0  0  0  0  0  0
   18.4998   37.2337  -12.7954 C   0  0  0  0  0  0  0  0  0  0  0  0
   19.4542   38.0116  -13.4099 C   0  0  0  0  0  0  0  0  0  0  0  0
   19.8241   39.2070  -12.8312 C   0  0  0  0  0  0  0  0  0  0  0  0
   19.2383   39.6245  -11.6359 C   0  0  0  0  0  0  0  0  0  0  0  0
   14.7987   39.4478   -5.6845 H   0  0  0  0  0  0  0  0  0  0  0  0
  1  2  2  0
 24  1  1  0
  2  3  1  0
  4  3  2  0
  3 25  1  0
  5  4  1  0
  4  6  1  0
 24  5  2  0
  6  7  1  0
  6 19  1  6
  6 26  1  0
  7 11  1  0
  7 28  1  6
 13  8  2  0
 14  9  1  0
  9 24  1  0
 17 10  1  0
 10 21  1  0
 11 27  1  0
 12 15  2  0
 16 12  1  0
 26 13  1  0
 13 27  1  0
 15 14  1  0
 14 23  2  0
 15 18  1  0
 16 17  2  0
 17 22  1  0
 18 22  2  0
 21 20  1  0
 28 29  2  0
 28 33  1  0
 29 30  1  0
 30 31  2  0
 31 32  1  0
 32 33  2  0
  8 34  1  0
M  END
$$$$
