
     RDKit          3D

 34 37  0  0  0  0  0  0  0  0999 V2000
   21.5376   38.9598   -7.5920 C   0  0  0  0  0  0  0  0  0  0  0  0
   21.1018   38.4620   -8.7798 C   0  0  0  0  0  0  0  0  0  0  0  0
   19.7654   38.2964   -9.0267 C   0  0  0  0  0  0  0  0  0  0  0  0
   18.7973   38.6185   -8.1021 C   0  0  0  0  0  0  0  0  0  0  0  0
   19.2800   39.1250   -6.8992 C   0  0  0  0  0  0  0  0  0  0  0  0
   17.3383   38.4473   -8.3336 C   0  0  1  0  0  0  0  0  0  0  0  0
   16.9938   39.1358   -9.6104 C   0  0  2  0  0  0  0  0  0  0  0  0
   16.0131   40.8607   -5.8793 N   0  0  0  0  0  0  0  0  0  0  0  0
   21.1439   39.8141   -5.4128 N   0  0  0  0  0  0  0  0  0  0  0  0
   20.7478   43.7234   -0.4064 O   0  0  0  0  0  0  0  0  0  0  0  0
   15.5869   39.6054   -9.7334 C   0  0  0  0  0  0  0  0  0  0  0  0
   20.6763   41.2622   -3.0021 N   0  0  0  0  0  0  0  0  0  0  0  0
   16.0831   40.2230   -6.9998 C   0  0  0  0  0  0  0  0  0  0  0  0
   21.6580   41.1094   -5.2267 C   0  0  0  0  0  0  0  0  0  0  0  0
   21.4345   41.8329   -3.9523 C   0  0  0  0  0  0  0  0  0  0  0  0
   20.4458   41.8748   -1.8365 C   0  0  0  0  0  0  0  0  0  0  0  0
   21.0005   43.1129   -1.6162 C   0  0  0  0  0  0  0  0  0  0  0  0
   21.9724   43.0615   -3.7073 C   0  0  0  0  0  0  0  0  0  0  0  0
   16.9705   36.9945   -8.4095 C   0  0  0  0  0  0  0  0  0  0  0  0
   21.8389   44.6692    1.3247 F   0  0  0  0  0  0  0  0  0  0  0  0
   21.4976   43.4446    0.7679 C   0  0  0  0  0  0  0  0  0  0  0  0
   21.7576   43.7047   -2.5403 N   0  0  0  0  0  0  0  0  0  0  0  0
   22.3079   41.6953   -6.0991 O   0  0  0  0  0  0  0  0  0  0  0  0
   20.6085   39.3078   -6.6085 C   0  0  0  0  0  0  0  0  0  0  0  0
   19.3326   37.8019  -10.2274 F   0  0  0  0  0  0  0  0  0  0  0  0
   16.6997   38.9804   -7.1491 N   0  0  0  0  0  0  0  0  0  0  0  0
   15.3535   40.9407   -8.4951 S   0  0  0  0  0  0  0  0  0  0  0  0
   17.2442   38.2103  -10.7466 C   0  0  0  0  0  0  0  0  0  0  0  0
   18.1333   37.1564  -10.7092 C   0  0  0  0  0  0  0  0  0  0  0  0
   18.3623   36.3091  -11.7637 C   0  0  0  0  0  0  0  0  0  0  0  0
   17.6748   36.5030  -12.9400 C   0  0  0  0  0  0  0  0  0  0  0  0
   16.7738   37.5425  -13.0303 C   0  0  0  0  0  0  0  0  0  0  0  0
   16.5603   38.3892  -11.9423 C   0  0  0  0  0  0  0  0  0  0  0  0
   15.0806   41.0281   -5.4489 H   0  0  0  0  0  0  0  0  0  0  0  0
  1  2  2  0
 24  1  1  0
  2  3  1  0
  4  3  2  0
  3 25  1  0
  5  4  1  0
  4  6  1  0
 24  5  2  0
  6  7  1  0
  6 19  1  6
  6 26  1  0
  7 11  1  0
  7 28  1  6
 13  8  2  0
 14  9  1  0
  9 24  1  0
 17 10  1  0
 10 21  1  0
 11 27  1  0
 12 15  2  0
 16 12  1  0
 26 13  1  0
 13 27  1  0
 15 14  1  0
 14 23  2  0
 15 18  1  0
 16 17  2  0
 17 22  1  0
 18 22  2  0
 21 20  1  0
 28 29  2  0
 28 33  1  0
 29 30  1  0
 30 31  2  0
 31 32  1  0
 32 33  2  0
  8 34  1  0
M  END
$$$$
