
     RDKit          3D

 34 37  0  0  0  0  0  0  0  0999 V2000
   22.0022   38.8915   -7.0168 C   0  0  0  0  0  0  0  0  0  0  0  0
   21.7714   38.0250   -8.0389 C   0  0  0  0  0  0  0  0  0  0  0  0
   20.5456   37.9612   -8.6455 C   0  0  0  0  0  0  0  0  0  0  0  0
   19.4893   38.7575   -8.2634 C   0  0  0  0  0  0  0  0  0  0  0  0
   19.7623   39.6313   -7.2154 C   0  0  0  0  0  0  0  0  0  0  0  0
   18.1440   38.7117   -8.8953 C   0  0  1  0  0  0  0  0  0  0  0  0
   18.0054   39.9154   -9.7640 C   0  0  2  0  0  0  0  0  0  0  0  0
   16.0532   39.7008   -6.0222 N   0  0  0  0  0  0  0  0  0  0  0  0
   21.2977   40.5929   -5.5194 N   0  0  0  0  0  0  0  0  0  0  0  0
   22.2924   44.1170   -0.2543 O   0  0  0  0  0  0  0  0  0  0  0  0
   16.6134   40.3861  -10.0007 C   0  0  0  0  0  0  0  0  0  0  0  0
   20.6125   41.4669   -1.9735 N   0  0  0  0  0  0  0  0  0  0  0  0
   16.4355   39.6590   -7.2548 C   0  0  0  0  0  0  0  0  0  0  0  0
   20.7395   40.5557   -4.2295 C   0  0  0  0  0  0  0  0  0  0  0  0
   21.1759   41.5198   -3.1914 C   0  0  0  0  0  0  0  0  0  0  0  0
   20.9726   42.3146   -1.0045 C   0  0  0  0  0  0  0  0  0  0  0  0
   21.9392   43.2549   -1.2702 C   0  0  0  0  0  0  0  0  0  0  0  0
   22.1321   42.4624   -3.4277 C   0  0  0  0  0  0  0  0  0  0  0  0
   17.9707   37.4612   -9.7065 C   0  0  0  0  0  0  0  0  0  0  0  0
   21.1176   46.0341   -0.4151 F   0  0  0  0  0  0  0  0  0  0  0  0
   22.4067   45.5209   -0.4411 C   0  0  0  0  0  0  0  0  0  0  0  0
   22.5164   43.3318   -2.4694 N   0  0  0  0  0  0  0  0  0  0  0  0
   19.8755   39.7339   -3.9056 O   0  0  0  0  0  0  0  0  0  0  0  0
   20.9739   39.7295   -6.5787 C   0  0  0  0  0  0  0  0  0  0  0  0
   20.3218   37.0921   -9.6790 F   0  0  0  0  0  0  0  0  0  0  0  0
   17.2085   38.6302   -7.7938 N   0  0  0  0  0  0  0  0  0  0  0  0
   15.9671   40.9898   -8.3918 S   0  0  0  0  0  0  0  0  0  0  0  0
   18.5991   39.6267  -11.0961 C   0  0  0  0  0  0  0  0  0  0  0  0
   17.9170   39.0363  -12.1395 C   0  0  0  0  0  0  0  0  0  0  0  0
   18.4732   38.7688  -13.3648 C   0  0  0  0  0  0  0  0  0  0  0  0
   19.7896   39.1010  -13.5895 C   0  0  0  0  0  0  0  0  0  0  0  0
   20.5168   39.6937  -12.5794 C   0  0  0  0  0  0  0  0  0  0  0  0
   19.9262   39.9544  -11.3427 C   0  0  0  0  0  0  0  0  0  0  0  0
   15.0372   39.7723   -5.8090 H   0  0  0  0  0  0  0  0  0  0  0  0
  1  2  2  0
 24  1  1  0
  2  3  1  0
  4  3  2  0
  3 25  1  0
  5  4  1  0
  4  6  1  0
 24  5  2  0
  6  7  1  0
  6 19  1  6
  6 26  1  0
  7 11  1  0
  7 28  1  6
 13  8  2  0
 14  9  1  0
  9 24  1  0
 17 10  1  0
 10 21  1  0
 11 27  1  0
 12 15  2  0
 16 12  1  0
 26 13  1  0
 13 27  1  0
 15 14  1  0
 14 23  2  0
 15 18  1  0
 16 17  2  0
 17 22  1  0
 18 22  2  0
 21 20  1  0
 28 29  2  0
 28 33  1  0
 29 30  1  0
 30 31  2  0
 31 32  1  0
 32 33  2  0
  8 34  1  0
M  END
$$$$
