
     RDKit          3D

 34 37  0  0  0  0  0  0  0  0999 V2000
   21.7576   39.2919   -7.6818 C   0  0  0  0  0  0  0  0  0  0  0  0
   21.4428   38.3693   -8.6298 C   0  0  0  0  0  0  0  0  0  0  0  0
   20.1395   38.0324   -8.8798 C   0  0  0  0  0  0  0  0  0  0  0  0
   19.0857   38.5979   -8.1974 C   0  0  0  0  0  0  0  0  0  0  0  0
   19.4456   39.5371   -7.2358 C   0  0  0  0  0  0  0  0  0  0  0  0
   17.6595   38.2526   -8.4385 C   0  0  1  0  0  0  0  0  0  0  0  0
   17.1991   39.0180   -9.6322 C   0  0  2  0  0  0  0  0  0  0  0  0
   16.0662   40.1874   -5.7326 N   0  0  0  0  0  0  0  0  0  0  0  0
   21.1496   40.8456   -5.9936 N   0  0  0  0  0  0  0  0  0  0  0  0
   21.5876   43.2802   -0.1175 O   0  0  0  0  0  0  0  0  0  0  0  0
   15.7390   39.2996   -9.6969 C   0  0  0  0  0  0  0  0  0  0  0  0
   20.8576   41.2357   -2.9614 N   0  0  0  0  0  0  0  0  0  0  0  0
   16.2003   39.6874   -6.9154 C   0  0  0  0  0  0  0  0  0  0  0  0
   22.0881   40.6187   -4.9716 C   0  0  0  0  0  0  0  0  0  0  0  0
   21.9864   41.3412   -3.6812 C   0  0  0  0  0  0  0  0  0  0  0  0
   20.7181   41.8681   -1.7918 C   0  0  0  0  0  0  0  0  0  0  0  0
   21.7564   42.6387   -1.3258 C   0  0  0  0  0  0  0  0  0  0  0  0
   23.0004   42.1121   -3.1953 C   0  0  0  0  0  0  0  0  0  0  0  0
   17.4920   36.7791   -8.6681 C   0  0  0  0  0  0  0  0  0  0  0  0
   21.9559   45.4422    0.4038 F   0  0  0  0  0  0  0  0  0  0  0  0
   20.9695   44.5545   -0.0023 C   0  0  0  0  0  0  0  0  0  0  0  0
   22.8891   42.7625   -2.0179 N   0  0  0  0  0  0  0  0  0  0  0  0
   23.0241   39.8219   -5.0974 O   0  0  0  0  0  0  0  0  0  0  0  0
   20.7367   39.9054   -6.9518 C   0  0  0  0  0  0  0  0  0  0  0  0
   19.8287   37.1086   -9.8407 F   0  0  0  0  0  0  0  0  0  0  0  0
   16.9777   38.5644   -7.2004 N   0  0  0  0  0  0  0  0  0  0  0  0
   15.3501   40.4515   -8.3212 S   0  0  0  0  0  0  0  0  0  0  0  0
   17.5508   38.2611  -10.8625 C   0  0  0  0  0  0  0  0  0  0  0  0
   18.0631   36.9805  -10.8674 C   0  0  0  0  0  0  0  0  0  0  0  0
   18.3897   36.2900  -12.0071 C   0  0  0  0  0  0  0  0  0  0  0  0
   18.2033   36.8912  -13.2308 C   0  0  0  0  0  0  0  0  0  0  0  0
   17.6936   38.1711  -13.2820 C   0  0  0  0  0  0  0  0  0  0  0  0
   17.3700   38.8504  -12.1072 C   0  0  0  0  0  0  0  0  0  0  0  0
   15.1221   40.2079   -5.2952 H   0  0  0  0  0  0  0  0  0  0  0  0
  1  2  2  0
 24  1  1  0
  2  3  1  0
  4  3  2  0
  3 25  1  0
  5  4  1  0
  4  6  1  0
 24  5  2  0
  6  7  1  0
  6 19  1  6
  6 26  1  0
  7 11  1  0
  7 28  1  6
 13  8  2  0
 14  9  1  0
  9 24  1  0
 17 10  1  0
 10 21  1  0
 11 27  1  0
 12 15  2  0
 16 12  1  0
 26 13  1  0
 13 27  1  0
 15 14  1  0
 14 23  2  0
 15 18  1  0
 16 17  2  0
 17 22  1  0
 18 22  2  0
 21 20  1  0
 28 29  2  0
 28 33  1  0
 29 30  1  0
 30 31  2  0
 31 32  1  0
 32 33  2  0
  8 34  1  0
M  END
$$$$
