
     RDKit          3D

 34 37  0  0  0  0  0  0  0  0999 V2000
   21.5794   39.0615   -7.0627 C   0  0  0  0  0  0  0  0  0  0  0  0
   21.4572   38.2916   -8.1768 C   0  0  0  0  0  0  0  0  0  0  0  0
   20.2355   38.0824   -8.7583 C   0  0  0  0  0  0  0  0  0  0  0  0
   19.0752   38.6296   -8.2582 C   0  0  0  0  0  0  0  0  0  0  0  0
   19.2387   39.4111   -7.1185 C   0  0  0  0  0  0  0  0  0  0  0  0
   17.7316   38.4197   -8.8599 C   0  0  1  0  0  0  0  0  0  0  0  0
   17.5293   39.4649   -9.9036 C   0  0  2  0  0  0  0  0  0  0  0  0
   15.6040   39.7404   -6.1519 N   0  0  0  0  0  0  0  0  0  0  0  0
   20.6576   40.4271   -5.3541 N   0  0  0  0  0  0  0  0  0  0  0  0
   22.1408   43.6545   -0.0691 O   0  0  0  0  0  0  0  0  0  0  0  0
   16.1145   39.8238  -10.1946 C   0  0  0  0  0  0  0  0  0  0  0  0
   21.0134   41.4309   -2.6352 N   0  0  0  0  0  0  0  0  0  0  0  0
   15.9834   39.5258   -7.3672 C   0  0  0  0  0  0  0  0  0  0  0  0
   21.9094   40.7278   -4.7889 C   0  0  0  0  0  0  0  0  0  0  0  0
   22.0013   41.5215   -3.5403 C   0  0  0  0  0  0  0  0  0  0  0  0
   21.0508   42.1267   -1.4943 C   0  0  0  0  0  0  0  0  0  0  0  0
   22.1261   42.9480   -1.2526 C   0  0  0  0  0  0  0  0  0  0  0  0
   23.0559   42.3437   -3.2750 C   0  0  0  0  0  0  0  0  0  0  0  0
   17.6187   37.0509   -9.4647 C   0  0  0  0  0  0  0  0  0  0  0  0
   20.1147   43.3164    0.8595 F   0  0  0  0  0  0  0  0  0  0  0  0
   20.9923   44.3105    0.4501 C   0  0  0  0  0  0  0  0  0  0  0  0
   23.1218   43.0586   -2.1321 N   0  0  0  0  0  0  0  0  0  0  0  0
   22.9719   40.3524   -5.2958 O   0  0  0  0  0  0  0  0  0  0  0  0
   20.4418   39.6480   -6.5026 C   0  0  0  0  0  0  0  0  0  0  0  0
   20.1202   37.3125   -9.8841 F   0  0  0  0  0  0  0  0  0  0  0  0
   16.8054   38.4649   -7.7485 N   0  0  0  0  0  0  0  0  0  0  0  0
   15.4443   40.6384   -8.6919 S   0  0  0  0  0  0  0  0  0  0  0  0
   18.1320   39.0016  -11.1812 C   0  0  0  0  0  0  0  0  0  0  0  0
   18.8896   37.8565  -11.3130 C   0  0  0  0  0  0  0  0  0  0  0  0
   19.4465   37.4378  -12.4949 C   0  0  0  0  0  0  0  0  0  0  0  0
   19.2506   38.1895  -13.6308 C   0  0  0  0  0  0  0  0  0  0  0  0
   18.5005   39.3437  -13.5539 C   0  0  0  0  0  0  0  0  0  0  0  0
   17.9458   39.7463  -12.3388 C   0  0  0  0  0  0  0  0  0  0  0  0
   14.6012   39.9441   -5.9626 H   0  0  0  0  0  0  0  0  0  0  0  0
  1  2  2  0
 24  1  1  0
  2  3  1  0
  4  3  2  0
  3 25  1  0
  5  4  1  0
  4  6  1  0
 24  5  2  0
  6  7  1  0
  6 19  1  6
  6 26  1  0
  7 11  1  0
  7 28  1  6
 13  8  2  0
 14  9  1  0
  9 24  1  0
 17 10  1  0
 10 21  1  0
 11 27  1  0
 12 15  2  0
 16 12  1  0
 26 13  1  0
 13 27  1  0
 15 14  1  0
 14 23  2  0
 15 18  1  0
 16 17  2  0
 17 22  1  0
 18 22  2  0
 21 20  1  0
 28 29  2  0
 28 33  1  0
 29 30  1  0
 30 31  2  0
 31 32  1  0
 32 33  2  0
  8 34  1  0
M  END
$$$$
