
     RDKit          3D

 34 37  0  0  0  0  0  0  0  0999 V2000
   21.5350   38.4767   -6.7816 C   0  0  0  0  0  0  0  0  0  0  0  0
   21.2815   37.9381   -8.0493 C   0  0  0  0  0  0  0  0  0  0  0  0
   20.0568   38.0642   -8.6628 C   0  0  0  0  0  0  0  0  0  0  0  0
   19.0699   38.7479   -7.9798 C   0  0  0  0  0  0  0  0  0  0  0  0
   19.3331   39.2703   -6.7382 C   0  0  0  0  0  0  0  0  0  0  0  0
   17.6992   38.8851   -8.5990 C   0  0  1  0  0  0  0  0  0  0  0  0
   17.5067   40.1253   -9.3605 C   0  0  2  0  0  0  0  0  0  0  0  0
   15.6814   39.1238   -5.6189 N   0  0  0  0  0  0  0  0  0  0  0  0
   20.7671   39.7200   -4.8144 N   0  0  0  0  0  0  0  0  0  0  0  0
   21.0043   43.6152    0.3181 O   0  0  0  0  0  0  0  0  0  0  0  0
   17.0651   41.3530   -8.6505 C   0  0  0  0  0  0  0  0  0  0  0  0
   20.4290   41.2894   -2.4510 N   0  0  0  0  0  0  0  0  0  0  0  0
   16.0173   39.4273   -6.8235 C   0  0  0  0  0  0  0  0  0  0  0  0
   21.6138   40.7730   -4.5083 C   0  0  0  0  0  0  0  0  0  0  0  0
   21.4799   41.5410   -3.2380 C   0  0  0  0  0  0  0  0  0  0  0  0
   20.2816   41.9788   -1.2807 C   0  0  0  0  0  0  0  0  0  0  0  0
   21.1949   42.9340   -0.8876 C   0  0  0  0  0  0  0  0  0  0  0  0
   22.3895   42.4767   -2.8691 C   0  0  0  0  0  0  0  0  0  0  0  0
   17.6956   37.7102   -9.6830 C   0  0  0  0  0  0  0  0  0  0  0  0
   22.1609   45.5135    0.6294 F   0  0  0  0  0  0  0  0  0  0  0  0
   22.0482   44.1864    1.0478 C   0  0  0  0  0  0  0  0  0  0  0  0
   22.2420   43.1661   -1.6988 N   0  0  0  0  0  0  0  0  0  0  0  0
   22.5227   41.1260   -5.2766 O   0  0  0  0  0  0  0  0  0  0  0  0
   20.5769   39.1572   -6.0859 C   0  0  0  0  0  0  0  0  0  0  0  0
   19.8702   37.5300   -9.9111 F   0  0  0  0  0  0  0  0  0  0  0  0
   16.6857   38.5356   -7.6689 N   0  0  0  0  0  0  0  0  0  0  0  0
   15.6447   41.0531   -7.5388 S   0  0  0  0  0  0  0  0  0  0  0  0
   16.6150   39.9511  -10.5514 C   0  0  0  0  0  0  0  0  0  0  0  0
   17.1071   40.3503  -11.7801 C   0  0  0  0  0  0  0  0  0  0  0  0
   16.3374   40.2211  -12.9324 C   0  0  0  0  0  0  0  0  0  0  0  0
   15.0805   39.6867  -12.8066 C   0  0  0  0  0  0  0  0  0  0  0  0
   14.5869   39.2880  -11.5851 C   0  0  0  0  0  0  0  0  0  0  0  0
   15.3583   39.4187  -10.4370 C   0  0  0  0  0  0  0  0  0  0  0  0
   14.8660   39.5983   -5.1972 H   0  0  0  0  0  0  0  0  0  0  0  0
  1  2  2  0
 24  1  1  0
  2  3  1  0
  4  3  2  0
  3 25  1  0
  5  4  1  0
  6  4  1  1
 24  5  2  0
  6  7  1  0
 19  6  1  6
  6 26  1  0
  7 11  1  0
  7 28  1  6
 13  8  2  0
 14  9  1  0
  9 24  1  0
 17 10  1  0
 10 21  1  0
 11 27  1  6
 12 15  2  0
 16 12  1  0
 26 13  1  0
 13 27  1  0
 15 14  1  0
 14 23  2  0
 15 18  1  0
 16 17  2  0
 17 22  1  0
 18 22  2  0
 21 20  1  6
 28 29  2  0
 28 33  1  0
 29 30  1  0
 30 31  2  0
 31 32  1  0
 32 33  2  0
  8 34  1  0
M  END
$$$$
