
     RDKit          3D

 34 37  0  0  0  0  0  0  0  0999 V2000
   21.4766   38.8895   -7.0039 C   0  0  0  0  0  0  0  0  0  0  0  0
   21.3338   38.0188   -8.0385 C   0  0  0  0  0  0  0  0  0  0  0  0
   20.1057   37.7812   -8.5951 C   0  0  0  0  0  0  0  0  0  0  0  0
   18.9593   38.3992   -8.1482 C   0  0  0  0  0  0  0  0  0  0  0  0
   19.1438   39.2830   -7.0893 C   0  0  0  0  0  0  0  0  0  0  0  0
   17.6092   38.1616   -8.7247 C   0  0  1  0  0  0  0  0  0  0  0  0
   17.4144   39.1253   -9.8455 C   0  0  2  0  0  0  0  0  0  0  0  0
   15.5165   39.7180   -6.1166 N   0  0  0  0  0  0  0  0  0  0  0  0
   20.5908   40.4329   -5.4333 N   0  0  0  0  0  0  0  0  0  0  0  0
   22.2902   43.7000   -0.2351 O   0  0  0  0  0  0  0  0  0  0  0  0
   16.0027   39.4799  -10.1561 C   0  0  0  0  0  0  0  0  0  0  0  0
   21.0781   42.5464   -3.3976 N   0  0  0  0  0  0  0  0  0  0  0  0
   15.8854   39.4044   -7.3135 C   0  0  0  0  0  0  0  0  0  0  0  0
   21.8506   40.8953   -5.0139 C   0  0  0  0  0  0  0  0  0  0  0  0
   21.9968   41.6259   -3.7324 C   0  0  0  0  0  0  0  0  0  0  0  0
   21.1664   43.2312   -2.2528 C   0  0  0  0  0  0  0  0  0  0  0  0
   22.2221   42.9807   -1.4091 C   0  0  0  0  0  0  0  0  0  0  0  0
   23.0335   41.3975   -2.8770 C   0  0  0  0  0  0  0  0  0  0  0  0
   17.4743   36.7517   -9.2205 C   0  0  0  0  0  0  0  0  0  0  0  0
   21.0320   42.6313    1.2999 F   0  0  0  0  0  0  0  0  0  0  0  0
   21.1835   43.8450    0.6441 C   0  0  0  0  0  0  0  0  0  0  0  0
   23.1496   42.0730   -1.7143 N   0  0  0  0  0  0  0  0  0  0  0  0
   22.8761   40.7184   -5.6802 O   0  0  0  0  0  0  0  0  0  0  0  0
   20.3541   39.5518   -6.5011 C   0  0  0  0  0  0  0  0  0  0  0  0
   19.9696   36.9092   -9.6413 F   0  0  0  0  0  0  0  0  0  0  0  0
   16.6908   38.3058   -7.6153 N   0  0  0  0  0  0  0  0  0  0  0  0
   15.3529   40.4179   -8.7179 S   0  0  0  0  0  0  0  0  0  0  0  0
   18.0028   38.5558  -11.0863 C   0  0  0  0  0  0  0  0  0  0  0  0
   19.2461   38.8902  -11.5814 C   0  0  0  0  0  0  0  0  0  0  0  0
   19.7806   38.3637  -12.7300 C   0  0  0  0  0  0  0  0  0  0  0  0
   19.0505   37.4445  -13.4481 C   0  0  0  0  0  0  0  0  0  0  0  0
   17.8013   37.0753  -12.9967 C   0  0  0  0  0  0  0  0  0  0  0  0
   17.2818   37.6266  -11.8252 C   0  0  0  0  0  0  0  0  0  0  0  0
   14.5073   39.6674   -5.8677 H   0  0  0  0  0  0  0  0  0  0  0  0
  1  2  2  0
 24  1  1  0
  2  3  1  0
  4  3  2  0
  3 25  1  0
  5  4  1  0
  4  6  1  0
 24  5  2  0
  6  7  1  0
  6 19  1  6
  6 26  1  0
  7 11  1  0
  7 28  1  6
 13  8  2  0
 14  9  1  0
  9 24  1  0
 17 10  1  0
 10 21  1  0
 11 27  1  0
 12 15  2  0
 16 12  1  0
 26 13  1  0
 13 27  1  0
 15 14  1  0
 14 23  2  0
 15 18  1  0
 16 17  2  0
 17 22  1  0
 18 22  2  0
 21 20  1  0
 28 29  2  0
 28 33  1  0
 29 30  1  0
 30 31  2  0
 31 32  1  0
 32 33  2  0
  8 34  1  0
M  END
$$$$
