
     RDKit          3D

 34 37  0  0  0  0  0  0  0  0999 V2000
   21.7661   39.2295   -7.1090 C   0  0  0  0  0  0  0  0  0  0  0  0
   21.6229   38.2528   -8.0441 C   0  0  0  0  0  0  0  0  0  0  0  0
   20.3909   37.9389   -8.5522 C   0  0  0  0  0  0  0  0  0  0  0  0
   19.2408   38.5825   -8.1534 C   0  0  0  0  0  0  0  0  0  0  0  0
   19.4259   39.5755   -7.1962 C   0  0  0  0  0  0  0  0  0  0  0  0
   17.8866   38.2647   -8.6793 C   0  0  1  0  0  0  0  0  0  0  0  0
   17.6021   39.1996   -9.8052 C   0  0  2  0  0  0  0  0  0  0  0  0
   15.8035   39.7464   -6.0205 N   0  0  0  0  0  0  0  0  0  0  0  0
   20.8774   40.9154   -5.6942 N   0  0  0  0  0  0  0  0  0  0  0  0
   21.2812   43.4824    0.1243 O   0  0  0  0  0  0  0  0  0  0  0  0
   16.1635   39.4738  -10.0711 C   0  0  0  0  0  0  0  0  0  0  0  0
   20.6873   41.4084   -2.7299 N   0  0  0  0  0  0  0  0  0  0  0  0
   16.1476   39.4350   -7.2253 C   0  0  0  0  0  0  0  0  0  0  0  0
   21.9335   40.9221   -4.7660 C   0  0  0  0  0  0  0  0  0  0  0  0
   21.7901   41.6204   -3.4663 C   0  0  0  0  0  0  0  0  0  0  0  0
   20.5121   42.0147   -1.5513 C   0  0  0  0  0  0  0  0  0  0  0  0
   21.4858   42.8699   -1.0935 C   0  0  0  0  0  0  0  0  0  0  0  0
   22.7399   42.4736   -2.9883 C   0  0  0  0  0  0  0  0  0  0  0  0
   17.8109   36.8423   -9.1515 C   0  0  0  0  0  0  0  0  0  0  0  0
   23.3306   43.6394    1.0500 F   0  0  0  0  0  0  0  0  0  0  0  0
   22.2154   44.3865    0.6978 C   0  0  0  0  0  0  0  0  0  0  0  0
   22.5913   43.1002   -1.8021 N   0  0  0  0  0  0  0  0  0  0  0  0
   23.0106   40.3574   -4.9848 O   0  0  0  0  0  0  0  0  0  0  0  0
   20.6400   39.9234   -6.6597 C   0  0  0  0  0  0  0  0  0  0  0  0
   20.2543   36.9599   -9.4989 F   0  0  0  0  0  0  0  0  0  0  0  0
   17.0001   38.3764   -7.5406 N   0  0  0  0  0  0  0  0  0  0  0  0
   15.5137   40.3974   -8.6235 S   0  0  0  0  0  0  0  0  0  0  0  0
   18.1775   38.6438  -11.0582 C   0  0  0  0  0  0  0  0  0  0  0  0
   19.4143   38.9860  -11.5642 C   0  0  0  0  0  0  0  0  0  0  0  0
   19.9368   38.4720  -12.7240 C   0  0  0  0  0  0  0  0  0  0  0  0
   19.2007   37.5580  -13.4426 C   0  0  0  0  0  0  0  0  0  0  0  0
   17.9576   37.1813  -12.9805 C   0  0  0  0  0  0  0  0  0  0  0  0
   17.4503   37.7200  -11.7978 C   0  0  0  0  0  0  0  0  0  0  0  0
   14.8785   39.4333   -5.6607 H   0  0  0  0  0  0  0  0  0  0  0  0
  1  2  2  0
 24  1  1  0
  2  3  1  0
  4  3  2  0
  3 25  1  0
  5  4  1  0
  4  6  1  0
 24  5  2  0
  6  7  1  0
  6 19  1  6
  6 26  1  0
  7 11  1  0
  7 28  1  6
 13  8  2  0
 14  9  1  0
  9 24  1  0
 17 10  1  0
 10 21  1  0
 11 27  1  0
 12 15  2  0
 16 12  1  0
 26 13  1  0
 13 27  1  0
 15 14  1  0
 14 23  2  0
 15 18  1  0
 16 17  2  0
 17 22  1  0
 18 22  2  0
 21 20  1  0
 28 29  2  0
 28 33  1  0
 29 30  1  0
 30 31  2  0
 31 32  1  0
 32 33  2  0
  8 34  1  0
M  END
$$$$
