
     RDKit          3D

 34 37  0  0  0  0  0  0  0  0999 V2000
   21.5991   38.6786   -7.4529 C   0  0  0  0  0  0  0  0  0  0  0  0
   21.3612   38.1714   -8.6918 C   0  0  0  0  0  0  0  0  0  0  0  0
   20.0859   38.0741   -9.1803 C   0  0  0  0  0  0  0  0  0  0  0  0
   18.9848   38.4771   -8.4585 C   0  0  0  0  0  0  0  0  0  0  0  0
   19.2665   38.9906   -7.1962 C   0  0  0  0  0  0  0  0  0  0  0  0
   17.5862   38.3815   -8.9546 C   0  0  1  0  0  0  0  0  0  0  0  0
   17.3848   39.4586   -9.9656 C   0  0  2  0  0  0  0  0  0  0  0  0
   15.7846   39.8091   -6.0702 N   0  0  0  0  0  0  0  0  0  0  0  0
   20.8617   39.6171   -5.4013 N   0  0  0  0  0  0  0  0  0  0  0  0
   21.6843   43.5596   -0.4159 O   0  0  0  0  0  0  0  0  0  0  0  0
   15.9837   39.9296  -10.1392 C   0  0  0  0  0  0  0  0  0  0  0  0
   22.0676   42.6998   -3.8676 N   0  0  0  0  0  0  0  0  0  0  0  0
   16.0504   39.5893   -7.3143 C   0  0  0  0  0  0  0  0  0  0  0  0
   21.7850   40.6470   -5.1491 C   0  0  0  0  0  0  0  0  0  0  0  0
   21.7483   41.3953   -3.8699 C   0  0  0  0  0  0  0  0  0  0  0  0
   22.0492   43.4172   -2.7397 C   0  0  0  0  0  0  0  0  0  0  0  0
   21.6953   42.7980   -1.5648 C   0  0  0  0  0  0  0  0  0  0  0  0
   21.4011   40.8065   -2.6904 C   0  0  0  0  0  0  0  0  0  0  0  0
   17.3209   37.0370   -9.5661 C   0  0  0  0  0  0  0  0  0  0  0  0
   20.7325   43.1435    1.5848 F   0  0  0  0  0  0  0  0  0  0  0  0
   20.5126   43.7621    0.3621 C   0  0  0  0  0  0  0  0  0  0  0  0
   21.3734   41.5046   -1.5356 N   0  0  0  0  0  0  0  0  0  0  0  0
   22.6541   40.9714   -5.9653 O   0  0  0  0  0  0  0  0  0  0  0  0
   20.5270   39.1070   -6.6663 C   0  0  0  0  0  0  0  0  0  0  0  0
   19.8534   37.5697  -10.4314 F   0  0  0  0  0  0  0  0  0  0  0  0
   16.7557   38.4762   -7.7730 N   0  0  0  0  0  0  0  0  0  0  0  0
   15.4976   40.7644   -8.5779 S   0  0  0  0  0  0  0  0  0  0  0  0
   17.8485   38.9749  -11.2927 C   0  0  0  0  0  0  0  0  0  0  0  0
   19.0904   39.2460  -11.8283 C   0  0  0  0  0  0  0  0  0  0  0  0
   19.5096   38.7997  -13.0561 C   0  0  0  0  0  0  0  0  0  0  0  0
   18.6566   38.0336  -13.8170 C   0  0  0  0  0  0  0  0  0  0  0  0
   17.4031   37.7332  -13.3280 C   0  0  0  0  0  0  0  0  0  0  0  0
   17.0024   38.2002  -12.0759 C   0  0  0  0  0  0  0  0  0  0  0  0
   14.8083   39.6867   -5.7313 H   0  0  0  0  0  0  0  0  0  0  0  0
  1  2  2  0
 24  1  1  0
  2  3  1  0
  4  3  2  0
  3 25  1  0
  5  4  1  0
  4  6  1  0
 24  5  2  0
  6  7  1  0
  6 19  1  6
  6 26  1  0
  7 11  1  0
  7 28  1  6
 13  8  2  0
 14  9  1  0
  9 24  1  0
 17 10  1  0
 10 21  1  0
 11 27  1  0
 12 15  2  0
 16 12  1  0
 26 13  1  0
 13 27  1  0
 15 14  1  0
 14 23  2  0
 15 18  1  0
 16 17  2  0
 17 22  1  0
 18 22  2  0
 21 20  1  0
 28 29  2  0
 28 33  1  0
 29 30  1  0
 30 31  2  0
 31 32  1  0
 32 33  2  0
  8 34  1  0
M  END
$$$$
