
     RDKit          3D

 34 37  0  0  0  0  0  0  0  0999 V2000
   21.6870   38.3843   -7.7978 C   0  0  0  0  0  0  0  0  0  0  0  0
   21.0957   37.4999   -8.7088 C   0  0  0  0  0  0  0  0  0  0  0  0
   19.7957   37.6514   -9.1319 C   0  0  0  0  0  0  0  0  0  0  0  0
   19.0804   38.7178   -8.6229 C   0  0  0  0  0  0  0  0  0  0  0  0
   19.6733   39.5761   -7.7309 C   0  0  0  0  0  0  0  0  0  0  0  0
   17.6394   38.9073   -9.0335 C   0  0  1  0  0  0  0  0  0  0  0  0
   17.3765   40.1712   -9.7325 C   0  0  2  0  0  0  0  0  0  0  0  0
   16.0813   39.1240   -5.7877 N   0  0  0  0  0  0  0  0  0  0  0  0
   21.5360   40.3670   -6.3655 N   0  0  0  0  0  0  0  0  0  0  0  0
   20.4082   43.8075   -1.0252 O   0  0  0  0  0  0  0  0  0  0  0  0
   17.0792   41.3918   -8.9400 C   0  0  0  0  0  0  0  0  0  0  0  0
   20.3321   41.7580   -4.0587 N   0  0  0  0  0  0  0  0  0  0  0  0
   16.2487   39.4490   -7.0217 C   0  0  0  0  0  0  0  0  0  0  0  0
   21.8322   40.1154   -5.0357 C   0  0  0  0  0  0  0  0  0  0  0  0
   21.4830   41.0851   -3.9592 C   0  0  0  0  0  0  0  0  0  0  0  0
   19.9872   42.6532   -3.0860 C   0  0  0  0  0  0  0  0  0  0  0  0
   20.8009   42.8823   -1.9968 C   0  0  0  0  0  0  0  0  0  0  0  0
   22.2972   41.2962   -2.8955 C   0  0  0  0  0  0  0  0  0  0  0  0
   17.4438   37.7608  -10.1302 C   0  0  0  0  0  0  0  0  0  0  0  0
   20.4669   43.5605    1.2049 F   0  0  0  0  0  0  0  0  0  0  0  0
   21.1630   44.0868    0.1152 C   0  0  0  0  0  0  0  0  0  0  0  0
   21.9523   42.1914   -1.9228 N   0  0  0  0  0  0  0  0  0  0  0  0
   22.4016   39.0717   -4.6787 O   0  0  0  0  0  0  0  0  0  0  0  0
   21.0019   39.4462   -7.2802 C   0  0  0  0  0  0  0  0  0  0  0  0
   19.2738   36.7643  -10.0370 F   0  0  0  0  0  0  0  0  0  0  0  0
   16.7608   38.5614   -7.9739 N   0  0  0  0  0  0  0  0  0  0  0  0
   15.8259   41.1018   -7.6405 S   0  0  0  0  0  0  0  0  0  0  0  0
   16.3172   40.0512  -10.7848 C   0  0  0  0  0  0  0  0  0  0  0  0
   15.2306   39.2431  -10.5064 C   0  0  0  0  0  0  0  0  0  0  0  0
   14.2066   39.0808  -11.4347 C   0  0  0  0  0  0  0  0  0  0  0  0
   14.3128   39.7471  -12.6288 C   0  0  0  0  0  0  0  0  0  0  0  0
   15.3930   40.5526  -12.9099 C   0  0  0  0  0  0  0  0  0  0  0  0
   16.4134   40.7121  -11.9806 C   0  0  0  0  0  0  0  0  0  0  0  0
   15.1226   39.1189   -5.4022 H   0  0  0  0  0  0  0  0  0  0  0  0
  1  2  2  0
 24  1  1  0
  2  3  1  0
  4  3  2  0
  3 25  1  0
  5  4  1  0
  6  4  1  1
 24  5  2  0
  6  7  1  0
 19  6  1  6
  6 26  1  0
  7 11  1  0
  7 28  1  6
 13  8  2  0
 14  9  1  0
  9 24  1  0
 17 10  1  0
 10 21  1  0
 11 27  1  6
 12 15  2  0
 16 12  1  0
 26 13  1  0
 13 27  1  0
 15 14  1  0
 14 23  2  0
 15 18  1  0
 16 17  2  0
 17 22  1  0
 18 22  2  0
 21 20  1  6
 28 29  2  0
 28 33  1  0
 29 30  1  0
 30 31  2  0
 31 32  1  0
 32 33  2  0
  8 34  1  0
M  END
$$$$
