
     RDKit          3D

 34 37  0  0  0  0  0  0  0  0999 V2000
   21.7029   38.4872   -7.4108 C   0  0  0  0  0  0  0  0  0  0  0  0
   21.3436   38.0343   -8.6865 C   0  0  0  0  0  0  0  0  0  0  0  0
   20.0495   38.1060   -9.1472 C   0  0  0  0  0  0  0  0  0  0  0  0
   19.1011   38.6459   -8.3004 C   0  0  0  0  0  0  0  0  0  0  0  0
   19.4682   39.0856   -7.0532 C   0  0  0  0  0  0  0  0  0  0  0  0
   17.6609   38.7168   -8.7497 C   0  0  1  0  0  0  0  0  0  0  0  0
   17.3763   39.8170   -9.6790 C   0  0  2  0  0  0  0  0  0  0  0  0
   16.0603   39.5090   -5.6160 N   0  0  0  0  0  0  0  0  0  0  0  0
   21.0800   39.4965   -5.2663 N   0  0  0  0  0  0  0  0  0  0  0  0
   20.9679   43.3062   -0.0659 O   0  0  0  0  0  0  0  0  0  0  0  0
   17.0409   41.1585   -9.1363 C   0  0  0  0  0  0  0  0  0  0  0  0
   20.6214   40.9630   -2.8584 N   0  0  0  0  0  0  0  0  0  0  0  0
   16.2343   39.5967   -6.8881 C   0  0  0  0  0  0  0  0  0  0  0  0
   21.7933   40.6448   -4.9627 C   0  0  0  0  0  0  0  0  0  0  0  0
   21.5996   41.3686   -3.6745 C   0  0  0  0  0  0  0  0  0  0  0  0
   20.4217   41.6087   -1.6710 C   0  0  0  0  0  0  0  0  0  0  0  0
   21.2080   42.6751   -1.2899 C   0  0  0  0  0  0  0  0  0  0  0  0
   22.3840   42.4157   -3.3178 C   0  0  0  0  0  0  0  0  0  0  0  0
   17.5054   37.3775   -9.6086 C   0  0  0  0  0  0  0  0  0  0  0  0
   20.9969   45.5476   -0.1823 F   0  0  0  0  0  0  0  0  0  0  0  0
   21.6584   44.4430    0.3576 C   0  0  0  0  0  0  0  0  0  0  0  0
   22.1842   43.0613   -2.1305 N   0  0  0  0  0  0  0  0  0  0  0  0
   22.6262   41.1242   -5.7485 O   0  0  0  0  0  0  0  0  0  0  0  0
   20.7848   39.0252   -6.5549 C   0  0  0  0  0  0  0  0  0  0  0  0
   19.7583   37.6617  -10.4106 F   0  0  0  0  0  0  0  0  0  0  0  0
   16.7784   38.5572   -7.6496 N   0  0  0  0  0  0  0  0  0  0  0  0
   15.7798   41.0898   -7.8141 S   0  0  0  0  0  0  0  0  0  0  0  0
   16.3325   39.4716  -10.6964 C   0  0  0  0  0  0  0  0  0  0  0  0
   16.2177   40.2988  -11.7980 C   0  0  0  0  0  0  0  0  0  0  0  0
   15.2707   40.0436  -12.7854 C   0  0  0  0  0  0  0  0  0  0  0  0
   14.4601   38.9485  -12.6280 C   0  0  0  0  0  0  0  0  0  0  0  0
   14.5713   38.1224  -11.5325 C   0  0  0  0  0  0  0  0  0  0  0  0
   15.5179   38.3805  -10.5489 C   0  0  0  0  0  0  0  0  0  0  0  0
   15.1674   39.8391   -5.2140 H   0  0  0  0  0  0  0  0  0  0  0  0
  1  2  2  0
 24  1  1  0
  2  3  1  0
  4  3  2  0
  3 25  1  0
  5  4  1  0
  6  4  1  1
 24  5  2  0
  6  7  1  0
 19  6  1  6
  6 26  1  0
  7 11  1  0
  7 28  1  1
 13  8  2  0
 14  9  1  0
  9 24  1  0
 17 10  1  0
 10 21  1  0
 11 27  1  6
 12 15  2  0
 16 12  1  0
 26 13  1  0
 13 27  1  0
 15 14  1  0
 14 23  2  0
 15 18  1  0
 16 17  2  0
 17 22  1  0
 18 22  2  0
 21 20  1  6
 28 29  2  0
 28 33  1  0
 29 30  1  0
 30 31  2  0
 31 32  1  0
 32 33  2  0
  8 34  1  0
M  END
$$$$
