
     RDKit          3D

 34 37  0  0  0  0  0  0  0  0999 V2000
   15.0494   42.0545  -11.8527 C   0  0  0  0  0  0  0  0  0  0  0  0
   16.3281   41.6094  -12.2111 C   0  0  0  0  0  0  0  0  0  0  0  0
   17.1768   41.0230  -11.3012 C   0  0  0  0  0  0  0  0  0  0  0  0
   16.7229   40.8850  -10.0039 C   0  0  0  0  0  0  0  0  0  0  0  0
   15.4674   41.3259   -9.6677 C   0  0  0  0  0  0  0  0  0  0  0  0
   17.6307   40.2758   -8.9619 C   0  0  1  0  0  0  0  0  0  0  0  0
   18.2430   39.0052   -9.3693 C   0  0  2  0  0  0  0  0  0  0  0  0
   15.2219   39.5351   -6.3815 N   0  0  0  0  0  0  0  0  0  0  0  0
   13.3076   42.3542  -10.1551 N   0  0  0  0  0  0  0  0  0  0  0  0
    7.1294   43.2335   -8.5319 O   0  0  0  0  0  0  0  0  0  0  0  0
   17.5029   37.7369   -9.1453 C   0  0  0  0  0  0  0  0  0  0  0  0
   10.6871   42.5012   -8.9949 N   0  0  0  0  0  0  0  0  0  0  0  0
   16.2579   39.2998   -7.1077 C   0  0  0  0  0  0  0  0  0  0  0  0
   12.1563   42.3709  -10.9256 C   0  0  0  0  0  0  0  0  0  0  0  0
   10.8140   42.6048  -10.3217 C   0  0  0  0  0  0  0  0  0  0  0  0
    9.4680   42.7104   -8.4149 C   0  0  0  0  0  0  0  0  0  0  0  0
    8.3573   43.0279   -9.1675 C   0  0  0  0  0  0  0  0  0  0  0  0
    9.7335   42.9161  -11.0797 C   0  0  0  0  0  0  0  0  0  0  0  0
   18.8307   41.3299   -8.8969 C   0  0  0  0  0  0  0  0  0  0  0  0
    5.3028   43.7238   -9.7407 F   0  0  0  0  0  0  0  0  0  0  0  0
    5.9248   42.7121   -9.0068 C   0  0  0  0  0  0  0  0  0  0  0  0
    8.5143   43.1254  -10.4996 N   0  0  0  0  0  0  0  0  0  0  0  0
   12.1884   42.1922  -12.1536 O   0  0  0  0  0  0  0  0  0  0  0  0
   14.5768   41.9294  -10.5776 C   0  0  0  0  0  0  0  0  0  0  0  0
   18.4114   40.5921  -11.7117 F   0  0  0  0  0  0  0  0  0  0  0  0
   17.0284   40.3188   -7.6775 N   0  0  0  0  0  0  0  0  0  0  0  0
   16.8176   37.6087   -7.4549 S   0  0  0  0  0  0  0  0  0  0  0  0
   19.6263   38.8188   -8.8257 C   0  0  0  0  0  0  0  0  0  0  0  0
   20.4126   37.8407   -9.4054 C   0  0  0  0  0  0  0  0  0  0  0  0
   21.7083   37.6075   -8.9543 C   0  0  0  0  0  0  0  0  0  0  0  0
   22.1751   38.3780   -7.9201 C   0  0  0  0  0  0  0  0  0  0  0  0
   21.3953   39.3529   -7.3402 C   0  0  0  0  0  0  0  0  0  0  0  0
   20.1023   39.5827   -7.7933 C   0  0  0  0  0  0  0  0  0  0  0  0
   15.1435   40.4524   -5.9123 H   0  0  0  0  0  0  0  0  0  0  0  0
  1  2  2  0
 24  1  1  0
  2  3  1  0
  4  3  2  0
  3 25  1  0
  5  4  1  0
  6  4  1  6
 24  5  2  0
  6  7  1  0
 19  6  1  6
  6 26  1  0
  7 11  1  0
  7 28  1  1
 13  8  2  0
 14  9  1  0
  9 24  1  0
 17 10  1  0
 10 21  1  0
 11 27  1  6
 12 15  2  0
 16 12  1  0
 26 13  1  0
 13 27  1  0
 15 14  1  0
 14 23  2  0
 15 18  1  0
 16 17  2  0
 17 22  1  0
 18 22  2  0
 21 20  1  6
 28 29  2  0
 28 33  1  0
 29 30  1  0
 30 31  2  0
 31 32  1  0
 32 33  2  0
  8 34  1  0
M  END
$$$$
