
     RDKit          3D

 34 37  0  0  0  0  0  0  0  0999 V2000
   15.0833   41.2767  -12.2561 C   0  0  0  0  0  0  0  0  0  0  0  0
   16.4312   40.9823  -12.4971 C   0  0  0  0  0  0  0  0  0  0  0  0
   17.2802   40.5810  -11.4919 C   0  0  0  0  0  0  0  0  0  0  0  0
   16.7550   40.4764  -10.2187 C   0  0  0  0  0  0  0  0  0  0  0  0
   15.4321   40.7682   -9.9979 C   0  0  0  0  0  0  0  0  0  0  0  0
   17.6557   40.0699   -9.0765 C   0  0  1  0  0  0  0  0  0  0  0  0
   18.0405   38.6533   -9.0914 C   0  0  2  0  0  0  0  0  0  0  0  0
   15.4065   40.5486   -6.2977 N   0  0  0  0  0  0  0  0  0  0  0  0
   13.1991   41.4610  -10.7002 N   0  0  0  0  0  0  0  0  0  0  0  0
    7.6209   43.8570   -8.5282 O   0  0  0  0  0  0  0  0  0  0  0  0
   17.1494   37.6513   -8.4525 C   0  0  0  0  0  0  0  0  0  0  0  0
   10.8189   42.2631   -9.3286 N   0  0  0  0  0  0  0  0  0  0  0  0
   16.3288   39.9384   -6.9558 C   0  0  0  0  0  0  0  0  0  0  0  0
   12.5109   42.6155  -11.0363 C   0  0  0  0  0  0  0  0  0  0  0  0
   11.2127   42.9675  -10.3945 C   0  0  0  0  0  0  0  0  0  0  0  0
    9.6331   42.5645   -8.7208 C   0  0  0  0  0  0  0  0  0  0  0  0
    8.8263   43.5833   -9.1812 C   0  0  0  0  0  0  0  0  0  0  0  0
   10.4333   43.9736  -10.8628 C   0  0  0  0  0  0  0  0  0  0  0  0
   18.9953   40.8827   -9.3929 C   0  0  0  0  0  0  0  0  0  0  0  0
    6.4445   42.0625   -9.1869 F   0  0  0  0  0  0  0  0  0  0  0  0
    6.7482   42.8624   -8.0838 C   0  0  0  0  0  0  0  0  0  0  0  0
    9.2474   44.2749  -10.2549 N   0  0  0  0  0  0  0  0  0  0  0  0
   12.9426   43.4101  -11.8867 O   0  0  0  0  0  0  0  0  0  0  0  0
   14.5396   41.1808  -11.0071 C   0  0  0  0  0  0  0  0  0  0  0  0
   18.5864   40.2910  -11.7887 F   0  0  0  0  0  0  0  0  0  0  0  0
   17.1832   40.5970   -7.8463 N   0  0  0  0  0  0  0  0  0  0  0  0
   16.6069   38.1537   -6.7802 S   0  0  0  0  0  0  0  0  0  0  0  0
   19.4259   38.4155   -8.5737 C   0  0  0  0  0  0  0  0  0  0  0  0
   19.7346   38.9190   -7.3238 C   0  0  0  0  0  0  0  0  0  0  0  0
   21.0012   38.7394   -6.7758 C   0  0  0  0  0  0  0  0  0  0  0  0
   21.9272   38.0491   -7.5154 C   0  0  0  0  0  0  0  0  0  0  0  0
   21.6238   37.5461   -8.7604 C   0  0  0  0  0  0  0  0  0  0  0  0
   20.3583   37.7275   -9.3040 C   0  0  0  0  0  0  0  0  0  0  0  0
   14.9418   40.0522   -5.5196 H   0  0  0  0  0  0  0  0  0  0  0  0
  1  2  2  0
 24  1  1  0
  2  3  1  0
  4  3  2  0
  3 25  1  0
  5  4  1  0
  6  4  1  6
 24  5  2  0
  6  7  1  0
 19  6  1  6
  6 26  1  0
  7 11  1  0
  7 28  1  1
 13  8  2  0
 14  9  1  0
  9 24  1  0
 17 10  1  0
 10 21  1  0
 11 27  1  6
 12 15  2  0
 16 12  1  0
 26 13  1  0
 13 27  1  0
 15 14  1  0
 14 23  2  0
 15 18  1  0
 16 17  2  0
 17 22  1  0
 18 22  2  0
 21 20  1  6
 28 29  2  0
 28 33  1  0
 29 30  1  0
 30 31  2  0
 31 32  1  0
 32 33  2  0
  8 34  1  0
M  END
$$$$
