
     RDKit          3D

 34 37  0  0  0  0  0  0  0  0999 V2000
   21.2225   38.4986   -7.2684 C   0  0  0  0  0  0  0  0  0  0  0  0
   20.9643   37.7468   -8.4216 C   0  0  0  0  0  0  0  0  0  0  0  0
   19.6962   37.6183   -8.9386 C   0  0  0  0  0  0  0  0  0  0  0  0
   18.6698   38.2624   -8.2755 C   0  0  0  0  0  0  0  0  0  0  0  0
   18.9382   38.9955   -7.1467 C   0  0  0  0  0  0  0  0  0  0  0  0
   17.2555   38.1248   -8.7872 C   0  0  1  0  0  0  0  0  0  0  0  0
   16.9392   39.0045   -9.9190 C   0  0  2  0  0  0  0  0  0  0  0  0
   15.4280   39.3457   -5.9272 N   0  0  0  0  0  0  0  0  0  0  0  0
   20.4184   39.9129   -5.4359 N   0  0  0  0  0  0  0  0  0  0  0  0
   21.8440   43.5340   -0.2942 O   0  0  0  0  0  0  0  0  0  0  0  0
   16.4725   40.3897   -9.6547 C   0  0  0  0  0  0  0  0  0  0  0  0
   20.7451   41.1864   -2.8806 N   0  0  0  0  0  0  0  0  0  0  0  0
   15.6649   39.2100   -7.1848 C   0  0  0  0  0  0  0  0  0  0  0  0
   21.5910   40.5527   -5.0682 C   0  0  0  0  0  0  0  0  0  0  0  0
   21.6849   41.3556   -3.8162 C   0  0  0  0  0  0  0  0  0  0  0  0
   20.8068   41.9095   -1.7231 C   0  0  0  0  0  0  0  0  0  0  0  0
   21.8202   42.8156   -1.4931 C   0  0  0  0  0  0  0  0  0  0  0  0
   22.6900   42.2421   -3.6091 C   0  0  0  0  0  0  0  0  0  0  0  0
   17.2508   36.6409   -9.3817 C   0  0  0  0  0  0  0  0  0  0  0  0
   19.8950   43.9413    0.7420 F   0  0  0  0  0  0  0  0  0  0  0  0
   21.0716   43.1936    0.8175 C   0  0  0  0  0  0  0  0  0  0  0  0
   22.7517   42.9652   -2.4515 N   0  0  0  0  0  0  0  0  0  0  0  0
   22.6172   40.4875   -5.7635 O   0  0  0  0  0  0  0  0  0  0  0  0
   20.2259   39.1452   -6.5948 C   0  0  0  0  0  0  0  0  0  0  0  0
   19.5047   36.8826  -10.0790 F   0  0  0  0  0  0  0  0  0  0  0  0
   16.3284   38.0975   -7.7129 N   0  0  0  0  0  0  0  0  0  0  0  0
   15.1491   40.4603   -8.3948 S   0  0  0  0  0  0  0  0  0  0  0  0
   15.9828   38.3877  -10.8931 C   0  0  0  0  0  0  0  0  0  0  0  0
   14.6536   38.3125  -10.5208 C   0  0  0  0  0  0  0  0  0  0  0  0
   13.7057   37.7519  -11.3716 C   0  0  0  0  0  0  0  0  0  0  0  0
   14.1343   37.2794  -12.5858 C   0  0  0  0  0  0  0  0  0  0  0  0
   15.4569   37.3525  -12.9602 C   0  0  0  0  0  0  0  0  0  0  0  0
   16.4003   37.9128  -12.1081 C   0  0  0  0  0  0  0  0  0  0  0  0
   15.0751   40.2544   -5.5846 H   0  0  0  0  0  0  0  0  0  0  0  0
  1  2  2  0
 24  1  1  0
  2  3  1  0
  4  3  2  0
  3 25  1  0
  5  4  1  0
  6  4  1  1
 24  5  2  0
  6  7  1  0
 19  6  1  6
  6 26  1  0
  7 11  1  0
  7 28  1  1
 13  8  2  0
 14  9  1  0
  9 24  1  0
 17 10  1  0
 10 21  1  0
 11 27  1  6
 12 15  2  0
 16 12  1  0
 26 13  1  0
 13 27  1  0
 15 14  1  0
 14 23  2  0
 15 18  1  0
 16 17  2  0
 17 22  1  0
 18 22  2  0
 21 20  1  6
 28 29  2  0
 28 33  1  0
 29 30  1  0
 30 31  2  0
 31 32  1  0
 32 33  2  0
  8 34  1  0
M  END
$$$$
