
     RDKit          3D

 34 37  0  0  0  0  0  0  0  0999 V2000
   21.8514   38.8279   -7.1980 C   0  0  0  0  0  0  0  0  0  0  0  0
   21.5788   38.3406   -8.4377 C   0  0  0  0  0  0  0  0  0  0  0  0
   20.2904   38.2517   -8.8923 C   0  0  0  0  0  0  0  0  0  0  0  0
   19.2101   38.6436   -8.1338 C   0  0  0  0  0  0  0  0  0  0  0  0
   19.5271   39.1369   -6.8718 C   0  0  0  0  0  0  0  0  0  0  0  0
   17.7982   38.5566   -8.5926 C   0  0  1  0  0  0  0  0  0  0  0  0
   17.6228   39.5183   -9.7183 C   0  0  2  0  0  0  0  0  0  0  0  0
   16.1244   40.3891   -5.8641 N   0  0  0  0  0  0  0  0  0  0  0  0
   21.1719   39.7339   -5.1121 N   0  0  0  0  0  0  0  0  0  0  0  0
   20.6395   43.3808    0.0785 O   0  0  0  0  0  0  0  0  0  0  0  0
   16.2405   40.0308   -9.9224 C   0  0  0  0  0  0  0  0  0  0  0  0
   20.3879   41.2595   -2.7915 N   0  0  0  0  0  0  0  0  0  0  0  0
   16.3533   40.0153   -7.0785 C   0  0  0  0  0  0  0  0  0  0  0  0
   21.6768   41.0186   -4.8449 C   0  0  0  0  0  0  0  0  0  0  0  0
   21.4274   41.6693   -3.5365 C   0  0  0  0  0  0  0  0  0  0  0  0
   20.1221   41.8150   -1.6050 C   0  0  0  0  0  0  0  0  0  0  0  0
   20.9349   42.8247   -1.1477 C   0  0  0  0  0  0  0  0  0  0  0  0
   22.2172   42.6726   -3.0588 C   0  0  0  0  0  0  0  0  0  0  0  0
   17.4605   37.1644   -9.0394 C   0  0  0  0  0  0  0  0  0  0  0  0
   22.0039   44.9941    0.8643 F   0  0  0  0  0  0  0  0  0  0  0  0
   21.6333   43.6699    1.0521 C   0  0  0  0  0  0  0  0  0  0  0  0
   21.9741   43.2528   -1.8647 N   0  0  0  0  0  0  0  0  0  0  0  0
   22.3396   41.6544   -5.6715 O   0  0  0  0  0  0  0  0  0  0  0  0
   20.8019   39.2441   -6.3753 C   0  0  0  0  0  0  0  0  0  0  0  0
   20.0230   37.7674  -10.1443 F   0  0  0  0  0  0  0  0  0  0  0  0
   16.9985   38.8252   -7.4164 N   0  0  0  0  0  0  0  0  0  0  0  0
   15.8258   41.0615   -8.4607 S   0  0  0  0  0  0  0  0  0  0  0  0
   18.0358   38.8640  -10.9877 C   0  0  0  0  0  0  0  0  0  0  0  0
   18.8853   39.4318  -11.9143 C   0  0  0  0  0  0  0  0  0  0  0  0
   19.2584   38.8235  -13.0860 C   0  0  0  0  0  0  0  0  0  0  0  0
   18.7680   37.5708  -13.3757 C   0  0  0  0  0  0  0  0  0  0  0  0
   17.9149   36.9580  -12.4828 C   0  0  0  0  0  0  0  0  0  0  0  0
   17.5518   37.5996  -11.2984 C   0  0  0  0  0  0  0  0  0  0  0  0
   15.2499   40.0771   -5.3942 H   0  0  0  0  0  0  0  0  0  0  0  0
  1  2  2  0
 24  1  1  0
  2  3  1  0
  4  3  2  0
  3 25  1  0
  5  4  1  0
  4  6  1  0
 24  5  2  0
  6  7  1  0
  6 19  1  6
  6 26  1  0
  7 11  1  0
  7 28  1  6
 13  8  2  0
 14  9  1  0
  9 24  1  0
 17 10  1  0
 10 21  1  0
 11 27  1  0
 12 15  2  0
 16 12  1  0
 26 13  1  0
 13 27  1  0
 15 14  1  0
 14 23  2  0
 15 18  1  0
 16 17  2  0
 17 22  1  0
 18 22  2  0
 21 20  1  0
 28 29  2  0
 28 33  1  0
 29 30  1  0
 30 31  2  0
 31 32  1  0
 32 33  2  0
  8 34  1  0
M  END
$$$$
