
     RDKit          3D

 34 37  0  0  0  0  0  0  0  0999 V2000
   21.4760   38.5586   -6.9975 C   0  0  0  0  0  0  0  0  0  0  0  0
   21.1844   38.0476   -8.2685 C   0  0  0  0  0  0  0  0  0  0  0  0
   19.9126   38.0781   -8.7917 C   0  0  0  0  0  0  0  0  0  0  0  0
   18.9170   38.6360   -8.0134 C   0  0  0  0  0  0  0  0  0  0  0  0
   19.2180   39.1327   -6.7699 C   0  0  0  0  0  0  0  0  0  0  0  0
   17.4988   38.6636   -8.5319 C   0  0  1  0  0  0  0  0  0  0  0  0
   17.2404   39.7230   -9.5147 C   0  0  2  0  0  0  0  0  0  0  0  0
   15.7384   39.5424   -5.5089 N   0  0  0  0  0  0  0  0  0  0  0  0
   20.7371   39.6442   -4.9285 N   0  0  0  0  0  0  0  0  0  0  0  0
   21.1802   43.2294    0.4118 O   0  0  0  0  0  0  0  0  0  0  0  0
   16.8575   41.0774   -9.0398 C   0  0  0  0  0  0  0  0  0  0  0  0
   20.5816   40.9684   -2.4056 N   0  0  0  0  0  0  0  0  0  0  0  0
   15.9712   39.5859   -6.7739 C   0  0  0  0  0  0  0  0  0  0  0  0
   21.5353   40.7361   -4.6281 C   0  0  0  0  0  0  0  0  0  0  0  0
   21.4648   41.4161   -3.3038 C   0  0  0  0  0  0  0  0  0  0  0  0
   20.4959   41.5733   -1.1836 C   0  0  0  0  0  0  0  0  0  0  0  0
   21.3021   42.6409   -0.8503 C   0  0  0  0  0  0  0  0  0  0  0  0
   22.2670   42.4651   -2.9952 C   0  0  0  0  0  0  0  0  0  0  0  0
   17.4064   37.2906   -9.3455 C   0  0  0  0  0  0  0  0  0  0  0  0
   20.6161   45.2952   -0.2606 F   0  0  0  0  0  0  0  0  0  0  0  0
   21.4041   44.5867    0.6483 C   0  0  0  0  0  0  0  0  0  0  0  0
   22.1812   43.0699   -1.7732 N   0  0  0  0  0  0  0  0  0  0  0  0
   22.3456   41.1988   -5.4467 O   0  0  0  0  0  0  0  0  0  0  0  0
   20.5104   39.1155   -6.2087 C   0  0  0  0  0  0  0  0  0  0  0  0
   19.6883   37.5773  -10.0476 F   0  0  0  0  0  0  0  0  0  0  0  0
   16.5679   38.5289   -7.4691 N   0  0  0  0  0  0  0  0  0  0  0  0
   15.5363   41.0349   -7.7764 S   0  0  0  0  0  0  0  0  0  0  0  0
   16.2520   39.3208  -10.5659 C   0  0  0  0  0  0  0  0  0  0  0  0
   14.9864   38.9571  -10.1451 C   0  0  0  0  0  0  0  0  0  0  0  0
   14.0139   38.5703  -11.0625 C   0  0  0  0  0  0  0  0  0  0  0  0
   14.3535   38.5627  -12.3912 C   0  0  0  0  0  0  0  0  0  0  0  0
   15.6126   38.9241  -12.8143 C   0  0  0  0  0  0  0  0  0  0  0  0
   16.5807   39.3097  -11.8955 C   0  0  0  0  0  0  0  0  0  0  0  0
   15.0103   40.1623   -5.1174 H   0  0  0  0  0  0  0  0  0  0  0  0
  1  2  2  0
 24  1  1  0
  2  3  1  0
  4  3  2  0
  3 25  1  0
  5  4  1  0
  6  4  1  1
 24  5  2  0
  6  7  1  0
 19  6  1  6
  6 26  1  0
  7 11  1  0
  7 28  1  6
 13  8  2  0
 14  9  1  0
  9 24  1  0
 17 10  1  0
 10 21  1  0
 11 27  1  6
 12 15  2  0
 16 12  1  0
 26 13  1  0
 13 27  1  0
 15 14  1  0
 14 23  2  0
 15 18  1  0
 16 17  2  0
 17 22  1  0
 18 22  2  0
 21 20  1  6
 28 29  2  0
 28 33  1  0
 29 30  1  0
 30 31  2  0
 31 32  1  0
 32 33  2  0
  8 34  1  0
M  END
$$$$
