
     RDKit          3D

 34 37  0  0  0  0  0  0  0  0999 V2000
   21.8094   38.6804   -7.2641 C   0  0  0  0  0  0  0  0  0  0  0  0
   21.5754   38.1855   -8.5088 C   0  0  0  0  0  0  0  0  0  0  0  0
   20.3023   38.0992   -9.0049 C   0  0  0  0  0  0  0  0  0  0  0  0
   19.1995   38.5015   -8.2853 C   0  0  0  0  0  0  0  0  0  0  0  0
   19.4772   39.0023   -7.0170 C   0  0  0  0  0  0  0  0  0  0  0  0
   17.8031   38.4176   -8.7897 C   0  0  1  0  0  0  0  0  0  0  0  0
   17.6385   39.4484   -9.8541 C   0  0  2  0  0  0  0  0  0  0  0  0
   16.0153   40.0315   -5.9962 N   0  0  0  0  0  0  0  0  0  0  0  0
   21.0659   39.6045   -5.2082 N   0  0  0  0  0  0  0  0  0  0  0  0
   21.5066   43.0901    0.0990 O   0  0  0  0  0  0  0  0  0  0  0  0
   16.2517   39.9463  -10.0641 C   0  0  0  0  0  0  0  0  0  0  0  0
   20.8208   41.0035   -2.7253 N   0  0  0  0  0  0  0  0  0  0  0  0
   16.2858   39.7438   -7.2254 C   0  0  0  0  0  0  0  0  0  0  0  0
   21.7901   40.7816   -4.9495 C   0  0  0  0  0  0  0  0  0  0  0  0
   21.7409   41.4178   -3.6115 C   0  0  0  0  0  0  0  0  0  0  0  0
   20.7368   41.5462   -1.5064 C   0  0  0  0  0  0  0  0  0  0  0  0
   21.6140   42.5472   -1.1635 C   0  0  0  0  0  0  0  0  0  0  0  0
   22.5984   42.4123   -3.2450 C   0  0  0  0  0  0  0  0  0  0  0  0
   17.5078   37.0519   -9.3370 C   0  0  0  0  0  0  0  0  0  0  0  0
   19.3432   43.4528    0.6181 F   0  0  0  0  0  0  0  0  0  0  0  0
   20.5578   44.0960    0.4261 C   0  0  0  0  0  0  0  0  0  0  0  0
   22.5380   42.9795   -2.0218 N   0  0  0  0  0  0  0  0  0  0  0  0
   22.4885   41.3312   -5.8079 O   0  0  0  0  0  0  0  0  0  0  0  0
   20.7354   39.1073   -6.4795 C   0  0  0  0  0  0  0  0  0  0  0  0
   20.0739   37.6071  -10.2616 F   0  0  0  0  0  0  0  0  0  0  0  0
   16.9654   38.5917   -7.6222 N   0  0  0  0  0  0  0  0  0  0  0  0
   15.7746   40.8692   -8.5504 S   0  0  0  0  0  0  0  0  0  0  0  0
   18.1004   38.8882  -11.1514 C   0  0  0  0  0  0  0  0  0  0  0  0
   17.5938   37.7419  -11.7275 C   0  0  0  0  0  0  0  0  0  0  0  0
   18.0285   37.2285  -12.9232 C   0  0  0  0  0  0  0  0  0  0  0  0
   19.0296   37.8796  -13.6070 C   0  0  0  0  0  0  0  0  0  0  0  0
   19.5708   39.0305  -13.0750 C   0  0  0  0  0  0  0  0  0  0  0  0
   19.1098   39.5306  -11.8570 C   0  0  0  0  0  0  0  0  0  0  0  0
   15.0312   40.2390   -5.7290 H   0  0  0  0  0  0  0  0  0  0  0  0
  1  2  2  0
 24  1  1  0
  2  3  1  0
  4  3  2  0
  3 25  1  0
  5  4  1  0
  4  6  1  0
 24  5  2  0
  6  7  1  0
  6 19  1  6
  6 26  1  0
  7 11  1  0
  7 28  1  6
 13  8  2  0
 14  9  1  0
  9 24  1  0
 17 10  1  0
 10 21  1  0
 11 27  1  0
 12 15  2  0
 16 12  1  0
 26 13  1  0
 13 27  1  0
 15 14  1  0
 14 23  2  0
 15 18  1  0
 16 17  2  0
 17 22  1  0
 18 22  2  0
 21 20  1  0
 28 29  2  0
 28 33  1  0
 29 30  1  0
 30 31  2  0
 31 32  1  0
 32 33  2  0
  8 34  1  0
M  END
$$$$
