
     RDKit          3D

 34 37  0  0  0  0  0  0  0  0999 V2000
   21.8932   38.6660   -6.9097 C   0  0  0  0  0  0  0  0  0  0  0  0
   21.7161   38.1434   -8.1524 C   0  0  0  0  0  0  0  0  0  0  0  0
   20.4704   38.0730   -8.7162 C   0  0  0  0  0  0  0  0  0  0  0  0
   19.3398   38.5194   -8.0694 C   0  0  0  0  0  0  0  0  0  0  0  0
   19.5594   39.0475   -6.8008 C   0  0  0  0  0  0  0  0  0  0  0  0
   17.9716   38.4539   -8.6484 C   0  0  1  0  0  0  0  0  0  0  0  0
   17.8328   39.5742   -9.6222 C   0  0  2  0  0  0  0  0  0  0  0  0
   16.0132   39.7694   -5.8132 N   0  0  0  0  0  0  0  0  0  0  0  0
   21.0605   39.6615   -4.9224 N   0  0  0  0  0  0  0  0  0  0  0  0
   20.7107   43.5989    0.0665 O   0  0  0  0  0  0  0  0  0  0  0  0
   16.4459   40.0612   -9.8553 C   0  0  0  0  0  0  0  0  0  0  0  0
   20.4015   41.3300   -2.6826 N   0  0  0  0  0  0  0  0  0  0  0  0
   16.3491   39.6008   -7.0483 C   0  0  0  0  0  0  0  0  0  0  0  0
   21.7502   40.8573   -4.6557 C   0  0  0  0  0  0  0  0  0  0  0  0
   21.5020   41.6065   -3.4009 C   0  0  0  0  0  0  0  0  0  0  0  0
   20.1342   41.9784   -1.5444 C   0  0  0  0  0  0  0  0  0  0  0  0
   21.0091   42.9451   -1.1098 C   0  0  0  0  0  0  0  0  0  0  0  0
   22.3528   42.5701   -2.9466 C   0  0  0  0  0  0  0  0  0  0  0  0
   17.7365   37.1383   -9.3309 C   0  0  0  0  0  0  0  0  0  0  0  0
   22.3281   43.5063    1.6340 F   0  0  0  0  0  0  0  0  0  0  0  0
   21.6641   44.3749    0.7792 C   0  0  0  0  0  0  0  0  0  0  0  0
   22.1096   43.2416   -1.8013 N   0  0  0  0  0  0  0  0  0  0  0  0
   22.5799   41.3317   -5.4388 O   0  0  0  0  0  0  0  0  0  0  0  0
   20.7883   39.1382   -6.1970 C   0  0  0  0  0  0  0  0  0  0  0  0
   20.2996   37.5528   -9.9707 F   0  0  0  0  0  0  0  0  0  0  0  0
   17.0751   38.5037   -7.5131 N   0  0  0  0  0  0  0  0  0  0  0  0
   15.8744   40.8320   -8.2901 S   0  0  0  0  0  0  0  0  0  0  0  0
   18.3700   39.1444  -10.9401 C   0  0  0  0  0  0  0  0  0  0  0  0
   17.8012   38.1669  -11.7298 C   0  0  0  0  0  0  0  0  0  0  0  0
   18.3054   37.7723  -12.9433 C   0  0  0  0  0  0  0  0  0  0  0  0
   19.4467   38.3742  -13.4217 C   0  0  0  0  0  0  0  0  0  0  0  0
   20.0551   39.3578  -12.6714 C   0  0  0  0  0  0  0  0  0  0  0  0
   19.5208   39.7396  -11.4405 C   0  0  0  0  0  0  0  0  0  0  0  0
   15.0091   39.7040   -5.5477 H   0  0  0  0  0  0  0  0  0  0  0  0
  1  2  2  0
 24  1  1  0
  2  3  1  0
  4  3  2  0
  3 25  1  0
  5  4  1  0
  4  6  1  0
 24  5  2  0
  6  7  1  0
  6 19  1  6
  6 26  1  0
  7 11  1  0
  7 28  1  6
 13  8  2  0
 14  9  1  0
  9 24  1  0
 17 10  1  0
 10 21  1  0
 11 27  1  0
 12 15  2  0
 16 12  1  0
 26 13  1  0
 13 27  1  0
 15 14  1  0
 14 23  2  0
 15 18  1  0
 16 17  2  0
 17 22  1  0
 18 22  2  0
 21 20  1  0
 28 29  2  0
 28 33  1  0
 29 30  1  0
 30 31  2  0
 31 32  1  0
 32 33  2  0
  8 34  1  0
M  END
$$$$
