
     RDKit          3D

 34 37  0  0  0  0  0  0  0  0999 V2000
   21.9138   38.6506   -7.1222 C   0  0  0  0  0  0  0  0  0  0  0  0
   21.7301   38.1160   -8.3589 C   0  0  0  0  0  0  0  0  0  0  0  0
   20.4742   37.9713   -8.8845 C   0  0  0  0  0  0  0  0  0  0  0  0
   19.3394   38.3517   -8.2038 C   0  0  0  0  0  0  0  0  0  0  0  0
   19.5659   38.8944   -6.9426 C   0  0  0  0  0  0  0  0  0  0  0  0
   17.9605   38.2047   -8.7408 C   0  0  1  0  0  0  0  0  0  0  0  0
   17.7679   39.2397   -9.7964 C   0  0  2  0  0  0  0  0  0  0  0  0
   16.0324   39.6907   -5.9699 N   0  0  0  0  0  0  0  0  0  0  0  0
   21.0845   39.5993   -5.1108 N   0  0  0  0  0  0  0  0  0  0  0  0
   21.9043   43.4545   -0.1138 O   0  0  0  0  0  0  0  0  0  0  0  0
   16.3629   39.6703  -10.0321 C   0  0  0  0  0  0  0  0  0  0  0  0
   21.1061   41.0981   -2.6850 N   0  0  0  0  0  0  0  0  0  0  0  0
   16.3442   39.4329   -7.1960 C   0  0  0  0  0  0  0  0  0  0  0  0
   22.1291   40.4916   -4.8113 C   0  0  0  0  0  0  0  0  0  0  0  0
   22.0978   41.2983   -3.5681 C   0  0  0  0  0  0  0  0  0  0  0  0
   21.0348   41.8006   -1.5498 C   0  0  0  0  0  0  0  0  0  0  0  0
   22.0005   42.7438   -1.2910 C   0  0  0  0  0  0  0  0  0  0  0  0
   23.0423   42.2402   -3.2861 C   0  0  0  0  0  0  0  0  0  0  0  0
   17.7465   36.8331   -9.3109 C   0  0  0  0  0  0  0  0  0  0  0  0
   20.5762   45.0976    0.6723 F   0  0  0  0  0  0  0  0  0  0  0  0
   20.6636   43.7203    0.5257 C   0  0  0  0  0  0  0  0  0  0  0  0
   22.9970   42.9649   -2.1485 N   0  0  0  0  0  0  0  0  0  0  0  0
   23.1039   40.6431   -5.5553 O   0  0  0  0  0  0  0  0  0  0  0  0
   20.8051   39.0584   -6.3764 C   0  0  0  0  0  0  0  0  0  0  0  0
   20.2963   37.4394  -10.1331 F   0  0  0  0  0  0  0  0  0  0  0  0
   17.0895   38.3215   -7.5907 N   0  0  0  0  0  0  0  0  0  0  0  0
   15.8065   40.5484   -8.5188 S   0  0  0  0  0  0  0  0  0  0  0  0
   18.2862   38.7202  -11.0894 C   0  0  0  0  0  0  0  0  0  0  0  0
   19.3600   39.2572  -11.7684 C   0  0  0  0  0  0  0  0  0  0  0  0
   19.8298   38.7749  -12.9638 C   0  0  0  0  0  0  0  0  0  0  0  0
   19.2078   37.6904  -13.5391 C   0  0  0  0  0  0  0  0  0  0  0  0
   18.1293   37.1156  -12.9013 C   0  0  0  0  0  0  0  0  0  0  0  0
   17.6723   37.6265  -11.6862 C   0  0  0  0  0  0  0  0  0  0  0  0
   15.0600   39.5110   -5.6458 H   0  0  0  0  0  0  0  0  0  0  0  0
  1  2  2  0
 24  1  1  0
  2  3  1  0
  4  3  2  0
  3 25  1  0
  5  4  1  0
  4  6  1  0
 24  5  2  0
  6  7  1  0
  6 19  1  6
  6 26  1  0
  7 11  1  0
  7 28  1  6
 13  8  2  0
 14  9  1  0
  9 24  1  0
 17 10  1  0
 10 21  1  0
 11 27  1  0
 12 15  2  0
 16 12  1  0
 26 13  1  0
 13 27  1  0
 15 14  1  0
 14 23  2  0
 15 18  1  0
 16 17  2  0
 17 22  1  0
 18 22  2  0
 21 20  1  0
 28 29  2  0
 28 33  1  0
 29 30  1  0
 30 31  2  0
 31 32  1  0
 32 33  2  0
  8 34  1  0
M  END
$$$$
