
     RDKit          3D

 55 57  0  0  0  0  0  0  0  0999 V2000
   23.1644  -33.6090   32.3478 N   0  0  0  0  0  0  0  0  0  0  0  0
   24.3146  -34.1937   31.9044 C   0  0  0  0  0  0  0  0  0  0  0  0
   25.5047  -33.7230   32.3308 N   0  0  0  0  0  0  0  0  0  0  0  0
   25.6027  -32.6995   33.1763 C   0  0  0  0  0  0  0  0  0  0  0  0
   24.4153  -32.1107   33.6220 C   0  0  0  0  0  0  0  0  0  0  0  0
   23.1902  -32.5762   33.1987 C   0  0  0  0  0  0  0  0  0  0  0  0
   22.0022  -31.9678   33.6594 N   0  0  0  0  0  0  0  0  0  0  0  0
   24.8141  -31.1278   34.4440 N   0  0  0  0  0  0  0  0  0  0  0  0
   26.1679  -31.1183   34.4962 C   0  0  0  0  0  0  0  0  0  0  0  0
   26.6656  -32.0856   33.7163 N   0  0  0  0  0  0  0  0  0  0  0  0
   28.0721  -32.3435   33.5486 C   0  0  1  0  0  0  0  0  0  0  0  0
   28.3956  -32.7583   32.1487 C   0  0  2  0  0  0  0  0  0  0  0  0
   28.5647  -34.1613   32.1475 O   0  0  0  0  0  0  0  0  0  0  0  0
   29.8014  -32.1624   31.9501 C   0  0  2  0  0  0  0  0  0  0  0  0
   30.6819  -33.1275   31.4978 O   0  0  0  0  0  0  0  0  0  0  0  0
   30.1083  -31.7112   33.3411 C   0  0  2  0  0  0  0  0  0  0  0  0
   28.8455  -31.1988   33.7282 O   0  0  0  0  0  0  0  0  0  0  0  0
   31.1992  -30.6945   33.4544 C   0  0  0  0  0  0  0  0  0  0  0  0
   30.6275  -29.4472   33.4865 O   0  0  0  0  0  0  0  0  0  0  0  0
   31.0646  -31.3405   29.6125 O   0  0  0  0  0  0  0  0  0  0  0  0
   31.1880  -32.7975   29.9234 P   0  0  1  0  0  5  0  0  0  0  0  0
   32.8383  -33.2081   29.7460 O   0  0  0  0  0  0  0  0  0  0  0  0
   30.2537  -33.6492   28.7862 O   0  0  0  0  0  0  0  0  0  0  0  0
   31.6452  -28.2734   34.1354 P   0  0  1  0  0  5  0  0  0  0  0  0
   31.3816  -26.7510   33.4419 O   0  0  0  0  0  0  0  0  0  0  0  0
   31.4825  -28.1680   35.6359 O   0  0  0  0  0  0  0  0  0  0  0  0
   33.2454  -28.7315   33.8267 O   0  0  0  0  0  0  0  0  0  0  0  0
   34.1778  -28.6682   35.2370 P   0  0  1  0  0  5  0  0  0  0  0  0
   33.3620  -27.9979   36.5332 O   0  0  0  0  0  0  0  0  0  0  0  0
   34.6505  -30.0608   35.6354 O   0  0  0  0  0  0  0  0  0  0  0  0
   35.5597  -27.7723   34.8752 O   0  0  0  0  0  0  0  0  0  0  0  0
   35.2420  -26.8788   33.8613 C   0  0  0  0  0  0  0  0  0  0  0  0
   36.2932  -25.7602   33.7792 C   0  0  2  0  0  0  0  0  0  0  0  0
   36.0190  -24.8608   34.9559 C   0  0  0  0  0  0  0  0  0  0  0  0
   36.0821  -25.0479   32.4829 C   0  0  0  0  0  0  0  0  0  0  0  0
   37.6238  -26.4726   33.8773 C   0  0  1  0  0  0  0  0  0  0  0  0
   37.3718  -27.8129   33.5248 O   0  0  0  0  0  0  0  0  0  0  0  0
   38.6500  -25.9436   32.9726 C   0  0  0  0  0  0  0  0  0  0  0  0
   39.4669  -25.0881   33.4475 O   0  0  0  0  0  0  0  0  0  0  0  0
   38.8198  -26.2932   31.6192 N   0  0  0  0  0  0  0  0  0  0  0  0
   39.9339  -25.8696   30.8058 C   0  0  0  0  0  0  0  0  0  0  0  0
   39.6371  -24.6180   30.0448 C   0  0  0  0  0  0  0  0  0  0  0  0
   40.3034  -24.6836   28.6999 C   0  0  0  0  0  0  0  0  0  0  0  0
   40.0164  -25.6159   27.9084 O   0  0  0  0  0  0  0  0  0  0  0  0
   41.2503  -23.7185   28.3007 N   0  0  0  0  0  0  0  0  0  0  0  0
   41.9223  -23.6810   27.0322 C   0  0  0  0  0  0  0  0  0  0  0  0
   42.1340  -22.2354   26.6275 C   0  0  0  0  0  0  0  0  0  0  0  0
   43.0587  -22.0062   25.1308 S   0  0  0  0  0  0  0  0  0  0  0  0
   44.0242  -23.3442   24.6128 C   0  0  0  0  0  0  0  0  0  0  0  0
   43.7253  -24.4716   25.0952 O   0  0  0  0  0  0  0  0  0  0  0  0
   45.1438  -23.3251   23.6867 C   0  0  0  0  0  0  0  0  0  0  0  0
   44.9671  -24.1951   22.4760 C   0  0  0  0  0  0  0  0  0  0  0  0
   45.5859  -21.9769   23.3235 N   0  0  0  0  0  4  0  0  0  0  0  0
   44.8768  -20.8873   23.7542 O   0  0  0  0  0  1  0  0  0  0  0  0
   46.5968  -21.8663   22.6226 O   0  0  0  0  0  0  0  0  0  0  0  0
  1  2  2  0
  1  6  1  0
  2  3  1  0
  3  4  2  0
  4  5  1  0
  4 10  1  0
  5  6  2  0
  5  8  1  0
  6  7  1  0
  8  9  2  0
  9 10  1  0
 11 10  1  6
 11 12  1  0
 11 17  1  0
 12 13  1  1
 12 14  1  0
 14 15  1  1
 14 16  1  0
 15 21  1  0
 16 17  1  0
 16 18  1  6
 18 19  1  0
 19 24  1  0
 21 20  2  0
 21 22  1  1
 21 23  1  0
 24 25  1  6
 24 26  2  0
 24 27  1  0
 27 28  1  0
 28 29  1  1
 28 30  2  0
 28 31  1  0
 31 32  1  0
 32 33  1  0
 33 34  1  1
 33 35  1  0
 33 36  1  0
 36 37  1  6
 36 38  1  0
 38 39  2  0
 38 40  1  0
 40 41  1  0
 41 42  1  0
 42 43  1  0
 43 44  2  0
 43 45  1  0
 45 46  1  0
 46 47  1  0
 47 48  1  0
 48 49  1  0
 49 50  2  0
 49 51  1  0
 51 52  1  0
 51 53  1  0
 53 54  1  0
 53 55  2  0
M  CHG  2  53   1  54  -1
M  END
$$$$
