
     RDKit          3D

 55 57  0  0  0  0  0  0  0  0999 V2000
   22.5713   29.0415   20.3025 N   0  0  0  0  0  0  0  0  0  0  0  0
   22.6721   27.9938   21.1704 C   0  0  0  0  0  0  0  0  0  0  0  0
   22.3640   26.7504   20.7474 N   0  0  0  0  0  0  0  0  0  0  0  0
   21.9611   26.5023   19.5032 C   0  0  0  0  0  0  0  0  0  0  0  0
   21.8627   27.5861   18.6252 C   0  0  0  0  0  0  0  0  0  0  0  0
   22.1726   28.8632   19.0373 C   0  0  0  0  0  0  0  0  0  0  0  0
   22.0662   29.9450   18.1361 N   0  0  0  0  0  0  0  0  0  0  0  0
   21.4432   27.0474   17.4700 N   0  0  0  0  0  0  0  0  0  0  0  0
   21.2943   25.7109   17.6348 C   0  0  0  0  0  0  0  0  0  0  0  0
   21.6116   25.3633   18.8879 N   0  0  0  0  0  0  0  0  0  0  0  0
   21.5588   24.0146   19.3893 C   0  0  1  0  0  0  0  0  0  0  0  0
   20.2557   23.7258   20.0638 C   0  0  2  0  0  0  0  0  0  0  0  0
   20.4734   23.7909   21.4585 O   0  0  0  0  0  0  0  0  0  0  0  0
   20.0445   22.2358   19.7375 C   0  0  2  0  0  0  0  0  0  0  0  0
   19.7888   21.5149   20.8891 O   0  0  0  0  0  0  0  0  0  0  0  0
   21.3665   21.8971   19.1291 C   0  0  2  0  0  0  0  0  0  0  0  0
   21.6055   23.0679   18.3683 O   0  0  0  0  0  0  0  0  0  0  0  0
   21.3837   20.6566   18.2939 C   0  0  0  0  0  0  0  0  0  0  0  0
   21.2368   21.0181   16.9781 O   0  0  0  0  0  0  0  0  0  0  0  0
   17.3465   22.0109   20.0622 O   0  0  0  0  0  0  0  0  0  0  0  0
   18.1314   21.4038   21.1803 P   0  0  1  0  0  5  0  0  0  0  0  0
   17.6685   19.7609   21.2811 O   0  0  0  0  0  0  0  0  0  0  0  0
   17.7033   22.2153   22.6120 O   0  0  0  0  0  0  0  0  0  0  0  0
   20.5143   19.8190   16.0429 P   0  0  1  0  0  5  0  0  0  0  0  0
   19.2325   19.0668   16.8548 O   0  0  0  0  0  0  0  0  0  0  0  0
   20.0103   20.3715   14.7277 O   0  0  0  0  0  0  0  0  0  0  0  0
   21.6841   18.6474   15.6893 O   0  0  0  0  0  0  0  0  0  0  0  0
   21.2490   17.1428   16.3290 P   0  0  1  0  0  5  0  0  0  0  0  0
   20.1572   17.2569   17.5900 O   0  0  0  0  0  0  0  0  0  0  0  0
   20.6457   16.2511   15.2508 O   0  0  0  0  0  0  0  0  0  0  0  0
   22.6709   16.3932   16.8383 O   0  0  0  0  0  0  0  0  0  0  0  0
   23.7267   16.9349   16.1177 C   0  0  0  0  0  0  0  0  0  0  0  0
   25.0466   16.2409   16.4908 C   0  0  2  0  0  0  0  0  0  0  0  0
   26.0524   16.7117   15.4731 C   0  0  0  0  0  0  0  0  0  0  0  0
   24.8158   14.7680   16.3937 C   0  0  0  0  0  0  0  0  0  0  0  0
   25.3536   16.7221   17.8914 C   0  0  1  0  0  0  0  0  0  0  0  0
   24.3122   16.2342   18.7049 O   0  0  0  0  0  0  0  0  0  0  0  0
   26.6263   16.2256   18.4255 C   0  0  0  0  0  0  0  0  0  0  0  0
   26.9189   16.5336   19.6273 O   0  0  0  0  0  0  0  0  0  0  0  0
   27.5628   15.4354   17.7317 N   0  0  0  0  0  0  0  0  0  0  0  0
   28.3813   15.9151   16.6443 C   0  0  0  0  0  0  0  0  0  0  0  0
   29.7818   16.2090   17.0754 C   0  0  0  0  0  0  0  0  0  0  0  0
   30.7072   15.1762   16.4974 C   0  0  0  0  0  0  0  0  0  0  0  0
   30.6203   14.8742   15.2812 O   0  0  0  0  0  0  0  0  0  0  0  0
   31.6779   14.5320   17.2913 N   0  0  0  0  0  0  0  0  0  0  0  0
   32.7047   13.6526   16.8074 C   0  0  0  0  0  0  0  0  0  0  0  0
   32.1851   12.9062   15.5944 C   0  0  0  0  0  0  0  0  0  0  0  0
   33.4186   12.4868   14.3901 S   0  0  0  0  0  0  0  0  0  0  0  0
   35.0466   12.3812   14.9639 C   0  0  0  0  0  0  0  0  0  0  0  0
   35.2094   12.4843   16.2114 O   0  0  0  0  0  0  0  0  0  0  0  0
   36.2539   12.1892   14.1785 C   0  0  0  0  0  0  0  0  0  0  0  0
   37.1177   13.4107   14.0532 C   0  0  0  0  0  0  0  0  0  0  0  0
   37.0337   11.0139   14.5730 N   0  0  0  0  0  4  0  0  0  0  0  0
   36.6399   10.2639   15.6491 O   0  0  0  0  0  1  0  0  0  0  0  0
   38.0419   10.7383   13.9151 O   0  0  0  0  0  0  0  0  0  0  0  0
  1  2  2  0
  1  6  1  0
  2  3  1  0
  3  4  2  0
  4  5  1  0
  4 10  1  0
  5  6  2  0
  5  8  1  0
  6  7  1  0
  8  9  2  0
  9 10  1  0
 11 10  1  6
 11 12  1  0
 11 17  1  0
 12 13  1  1
 12 14  1  0
 14 15  1  1
 14 16  1  0
 15 21  1  0
 16 17  1  0
 16 18  1  6
 18 19  1  0
 19 24  1  0
 21 20  2  0
 21 22  1  1
 21 23  1  0
 24 25  1  1
 24 26  2  0
 24 27  1  0
 27 28  1  0
 28 29  1  1
 28 30  2  0
 28 31  1  0
 31 32  1  0
 32 33  1  0
 33 34  1  6
 33 35  1  0
 33 36  1  0
 36 37  1  1
 36 38  1  0
 38 39  2  0
 38 40  1  0
 40 41  1  0
 41 42  1  0
 42 43  1  0
 43 44  2  0
 43 45  1  0
 45 46  1  0
 46 47  1  0
 47 48  1  0
 48 49  1  0
 49 50  2  0
 49 51  1  0
 51 52  1  0
 51 53  1  0
 53 54  1  0
 53 55  2  0
M  CHG  2  53   1  54  -1
M  END
$$$$
