
     RDKit          3D

 55 57  0  0  0  0  0  0  0  0999 V2000
   33.8247  -27.6698   28.5604 N   0  0  0  0  0  0  0  0  0  0  0  0
   34.1039  -27.7037   29.8954 C   0  0  0  0  0  0  0  0  0  0  0  0
   33.1987  -28.2252   30.7490 N   0  0  0  0  0  0  0  0  0  0  0  0
   32.0312  -28.7134   30.3361 C   0  0  0  0  0  0  0  0  0  0  0  0
   31.7594  -28.6718   28.9650 C   0  0  0  0  0  0  0  0  0  0  0  0
   32.6700  -28.1436   28.0771 C   0  0  0  0  0  0  0  0  0  0  0  0
   32.3771  -28.1097   26.6962 N   0  0  0  0  0  0  0  0  0  0  0  0
   30.5403  -29.2198   28.8461 N   0  0  0  0  0  0  0  0  0  0  0  0
   30.0944  -29.5751   30.0751 C   0  0  0  0  0  0  0  0  0  0  0  0
   31.0081  -29.2665   31.0034 N   0  0  0  0  0  0  0  0  0  0  0  0
   30.8424  -29.5131   32.4122 C   0  0  1  0  0  0  0  0  0  0  0  0
   30.5689  -28.2511   33.1665 C   0  0  2  0  0  0  0  0  0  0  0  0
   31.7707  -27.8644   33.8014 O   0  0  0  0  0  0  0  0  0  0  0  0
   29.6353  -28.7397   34.2893 C   0  0  2  0  0  0  0  0  0  0  0  0
   30.1025  -28.3326   35.5251 O   0  0  0  0  0  0  0  0  0  0  0  0
   29.7269  -30.2190   34.0992 C   0  0  2  0  0  0  0  0  0  0  0  0
   29.7226  -30.2959   32.6847 O   0  0  0  0  0  0  0  0  0  0  0  0
   28.6200  -31.0102   34.7201 C   0  0  0  0  0  0  0  0  0  0  0  0
   28.7540  -32.3202   34.3335 O   0  0  0  0  0  0  0  0  0  0  0  0
   28.6586  -26.1614   35.8344 O   0  0  0  0  0  0  0  0  0  0  0  0
   28.9017  -27.5267   36.3926 P   0  0  1  0  0  5  0  0  0  0  0  0
   27.4268  -28.3839   36.2758 O   0  0  0  0  0  0  0  0  0  0  0  0
   29.3393  -27.3467   38.0259 O   0  0  0  0  0  0  0  0  0  0  0  0
   27.2928  -33.1565   34.3244 P   0  0  1  0  0  5  0  0  0  0  0  0
   27.1244  -34.1550   35.6819 O   0  0  0  0  0  0  0  0  0  0  0  0
   26.1142  -32.2102   34.2575 O   0  0  0  0  0  0  0  0  0  0  0  0
   27.2474  -34.1269   32.9381 O   0  0  0  0  0  0  0  0  0  0  0  0
   28.2083  -35.5060   33.1307 P   0  0  1  0  0  5  0  0  0  0  0  0
   29.0239  -35.5387   34.5897 O   0  0  0  0  0  0  0  0  0  0  0  0
   27.3660  -36.7710   33.0230 O   0  0  0  0  0  0  0  0  0  0  0  0
   29.2939  -35.5352   31.8408 O   0  0  0  0  0  0  0  0  0  0  0  0
   30.1038  -34.4114   31.9323 C   0  0  0  0  0  0  0  0  0  0  0  0
   31.1824  -34.4332   30.8372 C   0  0  2  0  0  0  0  0  0  0  0  0
   30.4341  -34.3691   29.5316 C   0  0  0  0  0  0  0  0  0  0  0  0
   31.9313  -35.7183   30.9782 C   0  0  0  0  0  0  0  0  0  0  0  0
   32.0224  -33.2027   31.0979 C   0  0  1  0  0  0  0  0  0  0  0  0
   31.1124  -32.1680   31.3907 O   0  0  0  0  0  0  0  0  0  0  0  0
   32.9434  -33.3402   32.2312 C   0  0  0  0  0  0  0  0  0  0  0  0
   33.6384  -34.4067   32.2969 O   0  0  0  0  0  0  0  0  0  0  0  0
   33.1341  -32.3993   33.2614 N   0  0  0  0  0  0  0  0  0  0  0  0
   33.8986  -32.6519   34.4590 C   0  0  0  0  0  0  0  0  0  0  0  0
   33.9544  -31.4593   35.3581 C   0  0  0  0  0  0  0  0  0  0  0  0
   35.3179  -30.8344   35.2715 C   0  0  0  0  0  0  0  0  0  0  0  0
   36.3380  -31.5348   35.4876 O   0  0  0  0  0  0  0  0  0  0  0  0
   35.4830  -29.4712   34.9518 N   0  0  0  0  0  0  0  0  0  0  0  0
   36.7379  -28.8121   34.7228 C   0  0  0  0  0  0  0  0  0  0  0  0
   36.4767  -27.3616   34.3672 C   0  0  0  0  0  0  0  0  0  0  0  0
   37.8278  -26.5327   33.5699 S   0  0  0  0  0  0  0  0  0  0  0  0
   37.5016  -25.8574   32.0116 C   0  0  0  0  0  0  0  0  0  0  0  0
   36.3241  -25.9921   31.5773 O   0  0  0  0  0  0  0  0  0  0  0  0
   38.4250  -25.1528   31.1386 C   0  0  0  0  0  0  0  0  0  0  0  0
   39.0886  -26.0161   30.1051 C   0  0  0  0  0  0  0  0  0  0  0  0
   37.8653  -23.9354   30.5473 N   0  0  0  0  0  4  0  0  0  0  0  0
   38.3374  -22.7096   30.9349 O   0  0  0  0  0  1  0  0  0  0  0  0
   36.9656  -24.0569   29.7100 O   0  0  0  0  0  0  0  0  0  0  0  0
  1  2  2  0
  1  6  1  0
  2  3  1  0
  3  4  2  0
  4  5  1  0
  4 10  1  0
  5  6  2  0
  5  8  1  0
  6  7  1  0
  8  9  2  0
  9 10  1  0
 11 10  1  6
 11 12  1  0
 11 17  1  0
 12 13  1  1
 12 14  1  0
 14 15  1  1
 14 16  1  0
 15 21  1  0
 16 17  1  0
 16 18  1  1
 18 19  1  0
 19 24  1  0
 21 20  2  0
 21 22  1  1
 21 23  1  0
 24 25  1  1
 24 26  2  0
 24 27  1  0
 27 28  1  0
 28 29  1  1
 28 30  2  0
 28 31  1  0
 31 32  1  0
 32 33  1  0
 33 34  1  6
 33 35  1  0
 33 36  1  0
 36 37  1  1
 36 38  1  0
 38 39  2  0
 38 40  1  0
 40 41  1  0
 41 42  1  0
 42 43  1  0
 43 44  2  0
 43 45  1  0
 45 46  1  0
 46 47  1  0
 47 48  1  0
 48 49  1  0
 49 50  2  0
 49 51  1  0
 51 52  1  0
 51 53  1  0
 53 54  1  0
 53 55  2  0
M  CHG  2  53   1  54  -1
M  END
$$$$
