
     RDKit          3D

 55 57  0  0  0  0  0  0  0  0999 V2000
   22.1935   31.4448   17.8158 N   0  0  0  0  0  0  0  0  0  0  0  0
   22.3616   30.8575   19.0356 C   0  0  0  0  0  0  0  0  0  0  0  0
   21.9358   29.5917   19.2263 N   0  0  0  0  0  0  0  0  0  0  0  0
   21.3517   28.8852   18.2611 C   0  0  0  0  0  0  0  0  0  0  0  0
   21.1864   29.5006   17.0164 C   0  0  0  0  0  0  0  0  0  0  0  0
   21.6142   30.7919   16.8012 C   0  0  0  0  0  0  0  0  0  0  0  0
   21.4378   31.3965   15.5374 N   0  0  0  0  0  0  0  0  0  0  0  0
   20.5838   28.5718   16.2583 N   0  0  0  0  0  0  0  0  0  0  0  0
   20.3925   27.4536   16.9992 C   0  0  0  0  0  0  0  0  0  0  0  0
   20.8634   27.6365   18.2388 N   0  0  0  0  0  0  0  0  0  0  0  0
   20.8134   26.6395   19.2763 C   0  0  1  0  0  0  0  0  0  0  0  0
   19.4092   26.3611   19.7088 C   0  0  2  0  0  0  0  0  0  0  0  0
   19.1959   27.0404   20.9295 O   0  0  0  0  0  0  0  0  0  0  0  0
   19.4693   24.8637   20.0627 C   0  0  2  0  0  0  0  0  0  0  0  0
   18.9654   24.6406   21.3305 O   0  0  0  0  0  0  0  0  0  0  0  0
   20.9411   24.6197   19.9782 C   0  0  2  0  0  0  0  0  0  0  0  0
   21.2641   25.3963   18.8382 O   0  0  0  0  0  0  0  0  0  0  0  0
   21.3411   23.1865   19.8282 C   0  0  0  0  0  0  0  0  0  0  0  0
   21.3842   22.8864   18.4897 O   0  0  0  0  0  0  0  0  0  0  0  0
   16.7305   24.8280   19.9650 O   0  0  0  0  0  0  0  0  0  0  0  0
   17.2863   24.7965   21.3524 P   0  0  1  0  0  5  0  0  0  0  0  0
   16.5884   23.4486   22.1396 O   0  0  0  0  0  0  0  0  0  0  0  0
   16.8125   26.2317   22.1315 O   0  0  0  0  0  0  0  0  0  0  0  0
   20.6486   21.4177   18.1204 P   0  0  1  0  0  5  0  0  0  0  0  0
   20.6592   20.3535   19.4378 O   0  0  0  0  0  0  0  0  0  0  0  0
   19.2224   21.6147   17.6554 O   0  0  0  0  0  0  0  0  0  0  0  0
   21.5058   20.7020   16.8481 O   0  0  0  0  0  0  0  0  0  0  0  0
   23.1738   20.8936   17.0565 P   0  0  1  0  0  5  0  0  0  0  0  0
   24.0766   20.0575   15.9247 O   0  0  0  0  0  0  0  0  0  0  0  0
   23.5615   22.3655   16.9877 O   0  0  0  0  0  0  0  0  0  0  0  0
   23.5399   20.3684   18.6164 O   0  0  0  0  0  0  0  0  0  0  0  0
   24.4876   19.3584   18.5208 C   0  0  0  0  0  0  0  0  0  0  0  0
   24.8374   18.8132   19.9148 C   0  0  2  0  0  0  0  0  0  0  0  0
   24.2642   19.8055   20.8923 C   0  0  0  0  0  0  0  0  0  0  0  0
   26.3274   18.7514   20.0055 C   0  0  0  0  0  0  0  0  0  0  0  0
   24.1629   17.4611   19.9812 C   0  0  1  0  0  0  0  0  0  0  0  0
   22.9439   17.6025   19.2895 O   0  0  0  0  0  0  0  0  0  0  0  0
   24.9291   16.3823   19.3483 C   0  0  0  0  0  0  0  0  0  0  0  0
   25.8233   15.8068   20.0510 O   0  0  0  0  0  0  0  0  0  0  0  0
   24.7698   15.9186   18.0283 N   0  0  0  0  0  0  0  0  0  0  0  0
   25.4413   14.7607   17.4889 C   0  0  0  0  0  0  0  0  0  0  0  0
   24.5013   13.8374   16.7834 C   0  0  0  0  0  0  0  0  0  0  0  0
   24.4982   14.1570   15.3155 C   0  0  0  0  0  0  0  0  0  0  0  0
   25.1955   15.1089   14.8847 O   0  0  0  0  0  0  0  0  0  0  0  0
   23.7262   13.4105   14.4021 N   0  0  0  0  0  0  0  0  0  0  0  0
   23.6060   13.6759   12.9960 C   0  0  0  0  0  0  0  0  0  0  0  0
   22.8396   12.5425   12.3428 C   0  0  0  0  0  0  0  0  0  0  0  0
   21.1519   12.3825   12.8663 S   0  0  0  0  0  0  0  0  0  0  0  0
   20.8683   12.4426   14.5712 C   0  0  0  0  0  0  0  0  0  0  0  0
   21.8755   12.2762   15.3135 O   0  0  0  0  0  0  0  0  0  0  0  0
   19.6041   12.6606   15.2536 C   0  0  0  0  0  0  0  0  0  0  0  0
   18.3890   12.4646   14.3938 C   0  0  0  0  0  0  0  0  0  0  0  0
   19.4883   11.9425   16.5247 N   0  0  0  0  0  4  0  0  0  0  0  0
   20.5294   11.1723   16.9703 O   0  0  0  0  0  1  0  0  0  0  0  0
   18.4345   12.0515   17.1595 O   0  0  0  0  0  0  0  0  0  0  0  0
  1  2  2  0
  1  6  1  0
  2  3  1  0
  3  4  2  0
  4  5  1  0
  4 10  1  0
  5  6  2  0
  5  8  1  0
  6  7  1  0
  8  9  2  0
  9 10  1  0
 11 10  1  6
 11 12  1  0
 11 17  1  0
 12 13  1  1
 12 14  1  0
 14 15  1  1
 14 16  1  0
 15 21  1  0
 16 17  1  0
 16 18  1  6
 18 19  1  0
 19 24  1  0
 21 20  2  0
 21 22  1  1
 21 23  1  0
 24 25  1  1
 24 26  2  0
 24 27  1  0
 27 28  1  0
 28 29  1  6
 28 30  2  0
 28 31  1  0
 31 32  1  0
 32 33  1  0
 33 34  1  1
 33 35  1  0
 33 36  1  0
 36 37  1  6
 36 38  1  0
 38 39  2  0
 38 40  1  0
 40 41  1  0
 41 42  1  0
 42 43  1  0
 43 44  2  0
 43 45  1  0
 45 46  1  0
 46 47  1  0
 47 48  1  0
 48 49  1  0
 49 50  2  0
 49 51  1  0
 51 52  1  0
 51 53  1  0
 53 54  1  0
 53 55  2  0
M  CHG  2  53   1  54  -1
M  END
$$$$
