
     RDKit          3D

 55 57  0  0  0  0  0  0  0  0999 V2000
   21.3627   25.2329   11.2479 N   0  0  0  0  0  0  0  0  0  0  0  0
   21.7737   25.6900   12.4658 C   0  0  0  0  0  0  0  0  0  0  0  0
   21.6284   24.9038   13.5525 N   0  0  0  0  0  0  0  0  0  0  0  0
   21.0942   23.6865   13.4829 C   0  0  0  0  0  0  0  0  0  0  0  0
   20.6778   23.2319   12.2278 C   0  0  0  0  0  0  0  0  0  0  0  0
   20.8172   24.0189   11.1062 C   0  0  0  0  0  0  0  0  0  0  0  0
   20.3900   23.5425    9.8475 N   0  0  0  0  0  0  0  0  0  0  0  0
   20.1916   22.0026   12.4585 N   0  0  0  0  0  0  0  0  0  0  0  0
   20.3053   21.7240   13.7796 C   0  0  0  0  0  0  0  0  0  0  0  0
   20.8618   22.7580   14.4220 N   0  0  0  0  0  0  0  0  0  0  0  0
   21.1213   22.7833   15.8381 C   0  0  1  0  0  0  0  0  0  0  0  0
   20.0214   23.4624   16.5900 C   0  0  2  0  0  0  0  0  0  0  0  0
   20.4641   24.7658   16.9094 O   0  0  0  0  0  0  0  0  0  0  0  0
   20.0068   22.6832   17.9181 C   0  0  2  0  0  0  0  0  0  0  0  0
   20.0781   23.5490   18.9934 O   0  0  0  0  0  0  0  0  0  0  0  0
   21.2407   21.8546   17.7647 C   0  0  2  0  0  0  0  0  0  0  0  0
   21.1463   21.5065   16.3946 O   0  0  0  0  0  0  0  0  0  0  0  0
   21.3180   20.6569   18.6569 C   0  0  0  0  0  0  0  0  0  0  0  0
   20.6391   19.6255   18.0577 O   0  0  0  0  0  0  0  0  0  0  0  0
   19.1891   21.8202   20.7585 O   0  0  0  0  0  0  0  0  0  0  0  0
   18.9230   23.1641   20.1603 P   0  0  1  0  0  5  0  0  0  0  0  0
   18.9862   24.3003   21.4366 O   0  0  0  0  0  0  0  0  0  0  0  0
   17.3603   23.1313   19.4907 O   0  0  0  0  0  0  0  0  0  0  0  0
   21.5658   18.2281   17.9056 P   0  0  1  0  0  5  0  0  0  0  0  0
   20.6108   16.8295   17.9102 O   0  0  0  0  0  0  0  0  0  0  0  0
   22.4007   18.2525   16.6441 O   0  0  0  0  0  0  0  0  0  0  0  0
   22.6297   18.1533   19.2203 O   0  0  0  0  0  0  0  0  0  0  0  0
   24.0606   18.9940   18.8917 P   0  0  1  0  0  5  0  0  0  0  0  0
   23.7995   20.5824   18.4403 O   0  0  0  0  0  0  0  0  0  0  0  0
   24.9834   18.9849   20.1041 O   0  0  0  0  0  0  0  0  0  0  0  0
   24.8587   18.1509   17.6689 O   0  0  0  0  0  0  0  0  0  0  0  0
   25.3459   16.9675   18.2072 C   0  0  0  0  0  0  0  0  0  0  0  0
   26.2497   16.2461   17.1944 C   0  0  2  0  0  0  0  0  0  0  0  0
   25.3621   15.9188   16.0223 C   0  0  0  0  0  0  0  0  0  0  0  0
   26.7603   15.0090   17.8586 C   0  0  0  0  0  0  0  0  0  0  0  0
   27.3291   17.2501   16.8561 C   0  0  1  0  0  0  0  0  0  0  0  0
   27.4918   18.0457   18.0072 O   0  0  0  0  0  0  0  0  0  0  0  0
   28.6240   16.6438   16.5286 C   0  0  0  0  0  0  0  0  0  0  0  0
   29.4814   17.3759   15.9341 O   0  0  0  0  0  0  0  0  0  0  0  0
   29.0127   15.3201   16.8101 N   0  0  0  0  0  0  0  0  0  0  0  0
   29.2668   14.3179   15.8034 C   0  0  0  0  0  0  0  0  0  0  0  0
   30.4348   14.6664   14.9384 C   0  0  0  0  0  0  0  0  0  0  0  0
   31.5257   13.6543   15.1441 C   0  0  0  0  0  0  0  0  0  0  0  0
   31.2272   12.4547   15.3672 O   0  0  0  0  0  0  0  0  0  0  0  0
   32.8865   14.0193   15.0932 N   0  0  0  0  0  0  0  0  0  0  0  0
   33.9970   13.1090   15.0925 C   0  0  0  0  0  0  0  0  0  0  0  0
   35.2863   13.9022   15.0084 C   0  0  0  0  0  0  0  0  0  0  0  0
   36.6341   13.2398   15.9531 S   0  0  0  0  0  0  0  0  0  0  0  0
   36.2450   12.6367   17.5265 C   0  0  0  0  0  0  0  0  0  0  0  0
   35.0216   12.6277   17.8370 O   0  0  0  0  0  0  0  0  0  0  0  0
   37.1617   12.1392   18.5382 C   0  0  0  0  0  0  0  0  0  0  0  0
   37.9040   13.2077   19.2873 C   0  0  0  0  0  0  0  0  0  0  0  0
   36.5624   11.1592   19.4467 N   0  0  0  0  0  4  0  0  0  0  0  0
   35.2009   11.0201   19.4980 O   0  0  0  0  0  1  0  0  0  0  0  0
   37.3177   10.4848   20.1538 O   0  0  0  0  0  0  0  0  0  0  0  0
  1  2  2  0
  1  6  1  0
  2  3  1  0
  3  4  2  0
  4  5  1  0
  4 10  1  0
  5  6  2  0
  5  8  1  0
  6  7  1  0
  8  9  2  0
  9 10  1  0
 11 10  1  6
 11 12  1  0
 11 17  1  0
 12 13  1  1
 12 14  1  0
 14 15  1  1
 14 16  1  0
 15 21  1  0
 16 17  1  0
 16 18  1  1
 18 19  1  0
 19 24  1  0
 21 20  2  0
 21 22  1  1
 21 23  1  0
 24 25  1  6
 24 26  2  0
 24 27  1  0
 27 28  1  0
 28 29  1  6
 28 30  2  0
 28 31  1  0
 31 32  1  0
 32 33  1  0
 33 34  1  6
 33 35  1  0
 33 36  1  0
 36 37  1  1
 36 38  1  0
 38 39  2  0
 38 40  1  0
 40 41  1  0
 41 42  1  0
 42 43  1  0
 43 44  2  0
 43 45  1  0
 45 46  1  0
 46 47  1  0
 47 48  1  0
 48 49  1  0
 49 50  2  0
 49 51  1  0
 51 52  1  0
 51 53  1  0
 53 54  1  0
 53 55  2  0
M  CHG  2  53   1  54  -1
M  END
$$$$
