
     RDKit          3D

 55 57  0  0  0  0  0  0  0  0999 V2000
   14.5366   20.5322   14.1859 N   0  0  0  0  0  0  0  0  0  0  0  0
   15.4924   21.4780   13.9559 C   0  0  0  0  0  0  0  0  0  0  0  0
   16.6455   21.4390   14.6551 N   0  0  0  0  0  0  0  0  0  0  0  0
   16.8905   20.5042   15.5704 C   0  0  0  0  0  0  0  0  0  0  0  0
   15.9014   19.5416   15.7950 C   0  0  0  0  0  0  0  0  0  0  0  0
   14.7174   19.5637   15.0919 C   0  0  0  0  0  0  0  0  0  0  0  0
   13.7303   18.5834   15.3334 N   0  0  0  0  0  0  0  0  0  0  0  0
   16.4135   18.7477   16.7480 N   0  0  0  0  0  0  0  0  0  0  0  0
   17.6450   19.2010   17.0852 C   0  0  0  0  0  0  0  0  0  0  0  0
   17.9497   20.2864   16.3634 N   0  0  0  0  0  0  0  0  0  0  0  0
   19.1877   21.0121   16.4806 C   0  0  1  0  0  0  0  0  0  0  0  0
   18.9581   22.4871   16.5691 C   0  0  2  0  0  0  0  0  0  0  0  0
   19.2390   23.0397   15.2991 O   0  0  0  0  0  0  0  0  0  0  0  0
   20.1056   22.9397   17.4907 C   0  0  2  0  0  0  0  0  0  0  0  0
   20.8140   23.9780   16.9153 O   0  0  0  0  0  0  0  0  0  0  0  0
   20.9027   21.6788   17.5773 C   0  0  2  0  0  0  0  0  0  0  0  0
   19.8608   20.7230   17.6656 O   0  0  0  0  0  0  0  0  0  0  0  0
   21.8503   21.6028   18.7318 C   0  0  0  0  0  0  0  0  0  0  0  0
   21.1301   21.3213   19.8657 O   0  0  0  0  0  0  0  0  0  0  0  0
   20.9545   26.5277   17.5270 O   0  0  0  0  0  0  0  0  0  0  0  0
   21.2051   25.1535   18.0595 P   0  0  1  0  0  5  0  0  0  0  0  0
   20.2190   24.9668   19.4439 O   0  0  0  0  0  0  0  0  0  0  0  0
   22.8450   25.0612   18.4996 O   0  0  0  0  0  0  0  0  0  0  0  0
   21.3819   19.7565   20.4336 P   0  0  1  0  0  5  0  0  0  0  0  0
   21.7160   19.7297   22.0937 O   0  0  0  0  0  0  0  0  0  0  0  0
   20.1894   18.8681   20.1549 O   0  0  0  0  0  0  0  0  0  0  0  0
   22.7089   19.1023   19.6108 O   0  0  0  0  0  0  0  0  0  0  0  0
   22.2090   18.2261   18.2526 P   0  0  1  0  0  5  0  0  0  0  0  0
   21.6594   16.6922   18.6272 O   0  0  0  0  0  0  0  0  0  0  0  0
   21.1024   18.9646   17.5101 O   0  0  0  0  0  0  0  0  0  0  0  0
   23.5270   18.1468   17.2039 O   0  0  0  0  0  0  0  0  0  0  0  0
   24.2843   17.0344   17.5453 C   0  0  0  0  0  0  0  0  0  0  0  0
   25.4035   16.8073   16.5163 C   0  0  2  0  0  0  0  0  0  0  0  0
   24.8100   17.1834   15.1840 C   0  0  0  0  0  0  0  0  0  0  0  0
   25.7649   15.3585   16.5669 C   0  0  0  0  0  0  0  0  0  0  0  0
   26.5192   17.7326   16.9486 C   0  0  1  0  0  0  0  0  0  0  0  0
   26.0434   18.4046   18.0916 O   0  0  0  0  0  0  0  0  0  0  0  0
   27.7619   17.0399   17.3057 C   0  0  0  0  0  0  0  0  0  0  0  0
   28.4633   17.5394   18.2454 O   0  0  0  0  0  0  0  0  0  0  0  0
   28.2576   15.8671   16.7044 N   0  0  0  0  0  0  0  0  0  0  0  0
   29.4691   15.1969   17.1113 C   0  0  0  0  0  0  0  0  0  0  0  0
   30.5958   15.4340   16.1583 C   0  0  0  0  0  0  0  0  0  0  0  0
   31.9019   15.2169   16.8684 C   0  0  0  0  0  0  0  0  0  0  0  0
   32.0098   15.5274   18.0807 O   0  0  0  0  0  0  0  0  0  0  0  0
   33.0182   14.6699   16.2034 N   0  0  0  0  0  0  0  0  0  0  0  0
   34.2731   14.3327   16.8145 C   0  0  0  0  0  0  0  0  0  0  0  0
   34.1888   12.9256   17.3726 C   0  0  0  0  0  0  0  0  0  0  0  0
   35.6344   11.9305   17.1117 S   0  0  0  0  0  0  0  0  0  0  0  0
   37.1010   12.5058   17.8252 C   0  0  0  0  0  0  0  0  0  0  0  0
   37.2866   13.7539   17.7968 O   0  0  0  0  0  0  0  0  0  0  0  0
   38.1497   11.7207   18.4539 C   0  0  0  0  0  0  0  0  0  0  0  0
   39.1548   11.1442   17.4994 C   0  0  0  0  0  0  0  0  0  0  0  0
   38.7989   12.3971   19.5791 N   0  0  0  0  0  4  0  0  0  0  0  0
   40.0890   12.8400   19.4562 O   0  0  0  0  0  1  0  0  0  0  0  0
   38.1525   12.5411   20.6215 O   0  0  0  0  0  0  0  0  0  0  0  0
  1  2  2  0
  1  6  1  0
  2  3  1  0
  3  4  2  0
  4  5  1  0
  4 10  1  0
  5  6  2  0
  5  8  1  0
  6  7  1  0
  8  9  2  0
  9 10  1  0
 11 10  1  1
 11 12  1  0
 11 17  1  0
 12 13  1  6
 12 14  1  0
 14 15  1  6
 14 16  1  0
 15 21  1  0
 16 17  1  0
 16 18  1  1
 18 19  1  0
 19 24  1  0
 21 20  2  0
 21 22  1  1
 21 23  1  0
 24 25  1  1
 24 26  2  0
 24 27  1  0
 27 28  1  0
 28 29  1  1
 28 30  2  0
 28 31  1  0
 31 32  1  0
 32 33  1  0
 33 34  1  6
 33 35  1  0
 33 36  1  0
 36 37  1  1
 36 38  1  0
 38 39  2  0
 38 40  1  0
 40 41  1  0
 41 42  1  0
 42 43  1  0
 43 44  2  0
 43 45  1  0
 45 46  1  0
 46 47  1  0
 47 48  1  0
 48 49  1  0
 49 50  2  0
 49 51  1  0
 51 52  1  0
 51 53  1  0
 53 54  1  0
 53 55  2  0
M  CHG  2  53   1  54  -1
M  END
$$$$
