
     RDKit          3D

 55 57  0  0  0  0  0  0  0  0999 V2000
   23.9301   22.1826   14.1437 N   0  0  0  0  0  0  0  0  0  0  0  0
   24.5317   21.0565   13.6628 C   0  0  0  0  0  0  0  0  0  0  0  0
   24.7856   20.0309   14.5016 N   0  0  0  0  0  0  0  0  0  0  0  0
   24.4691   20.0742   15.7938 C   0  0  0  0  0  0  0  0  0  0  0  0
   23.8529   21.2349   16.2718 C   0  0  0  0  0  0  0  0  0  0  0  0
   23.5850   22.2931   15.4321 C   0  0  0  0  0  0  0  0  0  0  0  0
   22.9629   23.4572   15.9338 N   0  0  0  0  0  0  0  0  0  0  0  0
   23.6551   20.9983   17.5778 N   0  0  0  0  0  0  0  0  0  0  0  0
   24.1242   19.7634   17.8786 C   0  0  0  0  0  0  0  0  0  0  0  0
   24.6296   19.1834   16.7831 N   0  0  0  0  0  0  0  0  0  0  0  0
   25.2101   17.8660   16.7623 C   0  0  1  0  0  0  0  0  0  0  0  0
   26.6696   17.8993   17.0863 C   0  0  2  0  0  0  0  0  0  0  0  0
   27.3796   17.7760   15.8706 O   0  0  0  0  0  0  0  0  0  0  0  0
   26.8679   16.5653   17.8293 C   0  0  2  0  0  0  0  0  0  0  0  0
   27.9106   15.8470   17.2743 O   0  0  0  0  0  0  0  0  0  0  0  0
   25.5395   15.9214   17.5982 C   0  0  2  0  0  0  0  0  0  0  0  0
   24.6831   17.0394   17.7521 O   0  0  0  0  0  0  0  0  0  0  0  0
   25.2010   14.8061   18.5353 C   0  0  0  0  0  0  0  0  0  0  0  0
   24.6350   15.3449   19.6636 O   0  0  0  0  0  0  0  0  0  0  0  0
   28.9505   16.0131   19.6796 O   0  0  0  0  0  0  0  0  0  0  0  0
   28.8636   15.1375   18.4710 P   0  0  1  0  0  5  0  0  0  0  0  0
   28.1615   13.6615   18.9731 O   0  0  0  0  0  0  0  0  0  0  0  0
   30.4474   14.8661   17.9149 O   0  0  0  0  0  0  0  0  0  0  0  0
   22.9822   15.0451   19.7781 P   0  0  1  0  0  5  0  0  0  0  0  0
   22.5813   14.2379   21.2119 O   0  0  0  0  0  0  0  0  0  0  0  0
   22.1804   16.3251   19.6904 O   0  0  0  0  0  0  0  0  0  0  0  0
   22.5299   14.0692   18.4708 O   0  0  0  0  0  0  0  0  0  0  0  0
   20.9363   13.5273   18.6408 P   0  0  1  0  0  5  0  0  0  0  0  0
   20.8157   12.1084   19.5167 O   0  0  0  0  0  0  0  0  0  0  0  0
   20.0751   14.5852   19.3194 O   0  0  0  0  0  0  0  0  0  0  0  0
   20.3164   13.3220   17.0862 O   0  0  0  0  0  0  0  0  0  0  0  0
   20.8662   14.3006   16.2692 C   0  0  0  0  0  0  0  0  0  0  0  0
   19.7607   15.0608   15.5191 C   0  0  2  0  0  0  0  0  0  0  0  0
   18.7384   14.0204   15.1431 C   0  0  0  0  0  0  0  0  0  0  0  0
   20.3875   15.6764   14.3107 C   0  0  0  0  0  0  0  0  0  0  0  0
   19.2382   16.0683   16.5189 C   0  0  1  0  0  0  0  0  0  0  0  0
   20.3663   16.5397   17.2185 O   0  0  0  0  0  0  0  0  0  0  0  0
   18.5622   17.2176   15.9075 C   0  0  0  0  0  0  0  0  0  0  0  0
   17.8804   17.0044   14.8518 O   0  0  0  0  0  0  0  0  0  0  0  0
   18.5952   18.5440   16.3790 N   0  0  0  0  0  0  0  0  0  0  0  0
   17.8473   19.6312   15.7950 C   0  0  0  0  0  0  0  0  0  0  0  0
   16.8190   20.1793   16.7310 C   0  0  0  0  0  0  0  0  0  0  0  0
   17.5003   20.9757   17.8074 C   0  0  0  0  0  0  0  0  0  0  0  0
   17.8223   22.1699   17.5881 O   0  0  0  0  0  0  0  0  0  0  0  0
   17.7903   20.4125   19.0668 N   0  0  0  0  0  0  0  0  0  0  0  0
   18.7934   20.8808   19.9814 C   0  0  0  0  0  0  0  0  0  0  0  0
   19.9936   21.3661   19.1925 C   0  0  0  0  0  0  0  0  0  0  0  0
   21.4839   21.5505   20.1375 S   0  0  0  0  0  0  0  0  0  0  0  0
   21.3137   22.2486   21.7105 C   0  0  0  0  0  0  0  0  0  0  0  0
   20.2898   22.9620   21.8997 O   0  0  0  0  0  0  0  0  0  0  0  0
   22.2130   22.1131   22.8438 C   0  0  0  0  0  0  0  0  0  0  0  0
   23.4555   22.9515   22.7582 C   0  0  0  0  0  0  0  0  0  0  0  0
   21.5516   22.2582   24.1424 N   0  0  0  0  0  4  0  0  0  0  0  0
   22.0897   21.6629   25.2522 O   0  0  0  0  0  1  0  0  0  0  0  0
   20.5086   22.9178   24.1926 O   0  0  0  0  0  0  0  0  0  0  0  0
  1  2  2  0
  1  6  1  0
  2  3  1  0
  3  4  2  0
  4  5  1  0
  4 10  1  0
  5  6  2  0
  5  8  1  0
  6  7  1  0
  8  9  2  0
  9 10  1  0
 11 10  1  1
 11 12  1  0
 11 17  1  0
 12 13  1  6
 12 14  1  0
 14 15  1  6
 14 16  1  0
 15 21  1  0
 16 17  1  0
 16 18  1  1
 18 19  1  0
 19 24  1  0
 21 20  2  0
 21 22  1  1
 21 23  1  0
 24 25  1  1
 24 26  2  0
 24 27  1  0
 27 28  1  0
 28 29  1  1
 28 30  2  0
 28 31  1  0
 31 32  1  0
 32 33  1  0
 33 34  1  6
 33 35  1  0
 33 36  1  0
 36 37  1  6
 36 38  1  0
 38 39  2  0
 38 40  1  0
 40 41  1  0
 41 42  1  0
 42 43  1  0
 43 44  2  0
 43 45  1  0
 45 46  1  0
 46 47  1  0
 47 48  1  0
 48 49  1  0
 49 50  2  0
 49 51  1  0
 51 52  1  0
 51 53  1  0
 53 54  1  0
 53 55  2  0
M  CHG  2  53   1  54  -1
M  END
$$$$
