
     RDKit          3D

 55 57  0  0  0  0  0  0  0  0999 V2000
   19.0292   26.9741   25.6342 N   0  0  0  0  0  0  0  0  0  0  0  0
   18.4824   27.2941   24.4260 C   0  0  0  0  0  0  0  0  0  0  0  0
   18.7641   26.5331   23.3483 N   0  0  0  0  0  0  0  0  0  0  0  0
   19.5632   25.4707   23.4176 C   0  0  0  0  0  0  0  0  0  0  0  0
   20.1160   25.1553   24.6626 C   0  0  0  0  0  0  0  0  0  0  0  0
   19.8410   25.9193   25.7750 C   0  0  0  0  0  0  0  0  0  0  0  0
   20.4095   25.5852   27.0236 N   0  0  0  0  0  0  0  0  0  0  0  0
   20.8605   24.0624   24.4340 N   0  0  0  0  0  0  0  0  0  0  0  0
   20.7667   23.7308   23.1237 C   0  0  0  0  0  0  0  0  0  0  0  0
   19.9673   24.5947   22.4862 N   0  0  0  0  0  0  0  0  0  0  0  0
   19.6591   24.5235   21.0816 C   0  0  1  0  0  0  0  0  0  0  0  0
   19.8230   25.8502   20.4112 C   0  0  2  0  0  0  0  0  0  0  0  0
   18.5341   26.4034   20.2388 O   0  0  0  0  0  0  0  0  0  0  0  0
   20.3018   25.4463   19.0046 C   0  0  2  0  0  0  0  0  0  0  0  0
   19.5222   26.0449   18.0324 O   0  0  0  0  0  0  0  0  0  0  0  0
   20.1105   23.9656   19.0633 C   0  0  2  0  0  0  0  0  0  0  0  0
   20.5451   23.7038   20.3860 O   0  0  0  0  0  0  0  0  0  0  0  0
   20.8752   23.1841   18.0429 C   0  0  0  0  0  0  0  0  0  0  0  0
   21.1968   21.9641   18.5831 O   0  0  0  0  0  0  0  0  0  0  0  0
   21.6851   26.8388   16.7730 O   0  0  0  0  0  0  0  0  0  0  0  0
   20.3548   27.3006   17.2747 P   0  0  1  0  0  5  0  0  0  0  0  0
   19.4710   27.8469   15.9168 O   0  0  0  0  0  0  0  0  0  0  0  0
   20.6270   28.5923   18.3466 O   0  0  0  0  0  0  0  0  0  0  0  0
   22.5775   21.2850   17.8997 P   0  0  1  0  0  5  0  0  0  0  0  0
   23.9913   21.8112   18.6693 O   0  0  0  0  0  0  0  0  0  0  0  0
   22.5274   19.7734   17.9373 O   0  0  0  0  0  0  0  0  0  0  0  0
   22.6479   21.7528   16.2742 O   0  0  0  0  0  0  0  0  0  0  0  0
   22.5934   20.4059   15.2520 P   0  0  1  0  0  5  0  0  0  0  0  0
   21.0359   19.8973   14.9195 O   0  0  0  0  0  0  0  0  0  0  0  0
   23.2944   20.7005   13.9317 O   0  0  0  0  0  0  0  0  0  0  0  0
   23.4725   19.1794   16.0044 O   0  0  0  0  0  0  0  0  0  0  0  0
   22.7274   18.0099   15.9368 C   0  0  0  0  0  0  0  0  0  0  0  0
   23.5386   16.8214   16.4774 C   0  0  2  0  0  0  0  0  0  0  0  0
   24.9462   17.0358   15.9857 C   0  0  0  0  0  0  0  0  0  0  0  0
   22.9401   15.5786   15.9035 C   0  0  0  0  0  0  0  0  0  0  0  0
   23.4162   16.9225   17.9815 C   0  0  1  0  0  0  0  0  0  0  0  0
   22.0489   16.7465   18.2710 O   0  0  0  0  0  0  0  0  0  0  0  0
   24.1764   15.9014   18.7102 C   0  0  0  0  0  0  0  0  0  0  0  0
   23.5132   15.0205   19.3495 O   0  0  0  0  0  0  0  0  0  0  0  0
   25.5796   15.8012   18.7716 N   0  0  0  0  0  0  0  0  0  0  0  0
   26.2889   14.8170   19.5531 C   0  0  0  0  0  0  0  0  0  0  0  0
   27.7686   15.0251   19.5193 C   0  0  0  0  0  0  0  0  0  0  0  0
   28.1894   15.3783   18.1210 C   0  0  0  0  0  0  0  0  0  0  0  0
   27.6565   16.3558   17.5392 O   0  0  0  0  0  0  0  0  0  0  0  0
   29.1743   14.6346   17.4396 N   0  0  0  0  0  0  0  0  0  0  0  0
   30.1123   15.1624   16.4890 C   0  0  0  0  0  0  0  0  0  0  0  0
   31.4729   14.5431   16.7410 C   0  0  0  0  0  0  0  0  0  0  0  0
   32.0978   13.5463   15.4129 S   0  0  0  0  0  0  0  0  0  0  0  0
   32.3501   14.3506   13.9028 C   0  0  0  0  0  0  0  0  0  0  0  0
   31.7199   15.4305   13.7304 O   0  0  0  0  0  0  0  0  0  0  0  0
   33.2026   13.9290   12.8042 C   0  0  0  0  0  0  0  0  0  0  0  0
   34.2871   12.9654   13.1902 C   0  0  0  0  0  0  0  0  0  0  0  0
   32.4631   13.4674   11.6273 N   0  0  0  0  0  4  0  0  0  0  0  0
   31.2903   14.0805   11.2749 O   0  0  0  0  0  1  0  0  0  0  0  0
   32.9262   12.5193   10.9854 O   0  0  0  0  0  0  0  0  0  0  0  0
  1  2  2  0
  1  6  1  0
  2  3  1  0
  3  4  2  0
  4  5  1  0
  4 10  1  0
  5  6  2  0
  5  8  1  0
  6  7  1  0
  8  9  2  0
  9 10  1  0
 11 10  1  1
 11 12  1  0
 11 17  1  0
 12 13  1  6
 12 14  1  0
 14 15  1  6
 14 16  1  0
 15 21  1  0
 16 17  1  0
 16 18  1  6
 18 19  1  0
 19 24  1  0
 21 20  2  0
 21 22  1  6
 21 23  1  0
 24 25  1  1
 24 26  2  0
 24 27  1  0
 27 28  1  0
 28 29  1  6
 28 30  2  0
 28 31  1  0
 31 32  1  0
 32 33  1  0
 33 34  1  1
 33 35  1  0
 33 36  1  0
 36 37  1  6
 36 38  1  0
 38 39  2  0
 38 40  1  0
 40 41  1  0
 41 42  1  0
 42 43  1  0
 43 44  2  0
 43 45  1  0
 45 46  1  0
 46 47  1  0
 47 48  1  0
 48 49  1  0
 49 50  2  0
 49 51  1  0
 51 52  1  0
 51 53  1  0
 53 54  1  0
 53 55  2  0
M  CHG  2  53   1  54  -1
M  END
$$$$
