
     RDKit          3D

 55 57  0  0  0  0  0  0  0  0999 V2000
   33.7111  -36.7136   37.0319 N   0  0  0  0  0  0  0  0  0  0  0  0
   33.6714  -36.5765   35.6751 C   0  0  0  0  0  0  0  0  0  0  0  0
   33.0784  -35.4916   35.1354 N   0  0  0  0  0  0  0  0  0  0  0  0
   32.5244  -34.5391   35.8821 C   0  0  0  0  0  0  0  0  0  0  0  0
   32.5729  -34.6935   37.2711 C   0  0  0  0  0  0  0  0  0  0  0  0
   33.1736  -35.7935   37.8419 C   0  0  0  0  0  0  0  0  0  0  0  0
   33.2120  -35.9322   39.2465 N   0  0  0  0  0  0  0  0  0  0  0  0
   31.9510  -33.6066   37.7533 N   0  0  0  0  0  0  0  0  0  0  0  0
   31.5462  -32.8336   36.7168 C   0  0  0  0  0  0  0  0  0  0  0  0
   31.8955  -33.4006   35.5556 N   0  0  0  0  0  0  0  0  0  0  0  0
   31.6117  -32.8335   34.2630 C   0  0  1  0  0  0  0  0  0  0  0  0
   30.1528  -32.8944   33.9403 C   0  0  2  0  0  0  0  0  0  0  0  0
   29.9580  -33.9714   33.0464 O   0  0  0  0  0  0  0  0  0  0  0  0
   29.9501  -31.6135   33.1101 C   0  0  2  0  0  0  0  0  0  0  0  0
   29.3237  -31.9017   31.9119 O   0  0  0  0  0  0  0  0  0  0  0  0
   31.3673  -31.1769   32.9272 C   0  0  2  0  0  0  0  0  0  0  0  0
   31.8929  -31.4701   34.2096 O   0  0  0  0  0  0  0  0  0  0  0  0
   31.5472  -29.7415   32.5479 C   0  0  0  0  0  0  0  0  0  0  0  0
   31.0602  -28.9600   33.5656 O   0  0  0  0  0  0  0  0  0  0  0  0
   30.0131  -34.3534   32.5509 O   0  0  0  0  0  0  0  0  0  0  0  0
   29.0222  -33.5546   31.7668 P   0  0  1  0  0  5  0  0  0  0  0  0
   27.4753  -33.9201   32.3969 O   0  0  0  0  0  0  0  0  0  0  0  0
   29.1207  -34.0572   30.1453 O   0  0  0  0  0  0  0  0  0  0  0  0
   31.9649  -27.5617   33.8123 P   0  0  1  0  0  5  0  0  0  0  0  0
   32.9511  -27.2010   32.4836 O   0  0  0  0  0  0  0  0  0  0  0  0
   31.0767  -26.3727   34.1061 O   0  0  0  0  0  0  0  0  0  0  0  0
   32.9558  -27.8044   35.1633 O   0  0  0  0  0  0  0  0  0  0  0  0
   34.5893  -27.8196   34.7230 P   0  0  1  0  0  5  0  0  0  0  0  0
   35.6042  -27.3088   35.9494 O   0  0  0  0  0  0  0  0  0  0  0  0
   35.0203  -29.2166   34.2935 O   0  0  0  0  0  0  0  0  0  0  0  0
   34.7447  -26.8269   33.3689 O   0  0  0  0  0  0  0  0  0  0  0  0
   36.0425  -26.9484   32.8909 C   0  0  0  0  0  0  0  0  0  0  0  0
   36.1382  -26.4213   31.4501 C   0  0  2  0  0  0  0  0  0  0  0  0
   34.9269  -26.9656   30.7393 C   0  0  0  0  0  0  0  0  0  0  0  0
   37.4045  -26.9568   30.8654 C   0  0  0  0  0  0  0  0  0  0  0  0
   36.1156  -24.9152   31.5875 C   0  0  1  0  0  0  0  0  0  0  0  0
   36.5125  -24.6416   32.9111 O   0  0  0  0  0  0  0  0  0  0  0  0
   37.0339  -24.2210   30.6785 C   0  0  0  0  0  0  0  0  0  0  0  0
   36.5724  -23.8463   29.5510 O   0  0  0  0  0  0  0  0  0  0  0  0
   38.3870  -23.9271   30.9347 N   0  0  0  0  0  0  0  0  0  0  0  0
   39.2142  -23.1071   30.0828 C   0  0  0  0  0  0  0  0  0  0  0  0
   39.3426  -23.6706   28.7044 C   0  0  0  0  0  0  0  0  0  0  0  0
   40.1866  -22.7515   27.8679 C   0  0  0  0  0  0  0  0  0  0  0  0
   39.6817  -22.1790   26.8703 O   0  0  0  0  0  0  0  0  0  0  0  0
   41.5416  -22.5135   28.1761 N   0  0  0  0  0  0  0  0  0  0  0  0
   42.3658  -21.4938   27.5906 C   0  0  0  0  0  0  0  0  0  0  0  0
   43.2745  -20.9187   28.6593 C   0  0  0  0  0  0  0  0  0  0  0  0
   45.0101  -21.0566   28.3178 S   0  0  0  0  0  0  0  0  0  0  0  0
   45.4401  -21.5610   26.7204 C   0  0  0  0  0  0  0  0  0  0  0  0
   44.9099  -22.6296   26.3079 O   0  0  0  0  0  0  0  0  0  0  0  0
   46.3437  -20.9002   25.7940 C   0  0  0  0  0  0  0  0  0  0  0  0
   47.8011  -21.1091   26.0879 C   0  0  0  0  0  0  0  0  0  0  0  0
   46.0345  -21.1550   24.3853 N   0  0  0  0  0  4  0  0  0  0  0  0
   45.4502  -20.1754   23.6273 O   0  0  0  0  0  1  0  0  0  0  0  0
   46.3090  -22.2666   23.9223 O   0  0  0  0  0  0  0  0  0  0  0  0
  1  2  2  0
  1  6  1  0
  2  3  1  0
  3  4  2  0
  4  5  1  0
  4 10  1  0
  5  6  2  0
  5  8  1  0
  6  7  1  0
  8  9  2  0
  9 10  1  0
 11 10  1  1
 11 12  1  0
 11 17  1  0
 12 13  1  6
 12 14  1  0
 14 15  1  6
 14 16  1  0
 15 21  1  0
 16 17  1  0
 16 18  1  1
 18 19  1  0
 19 24  1  0
 21 20  2  0
 21 22  1  1
 21 23  1  0
 24 25  1  6
 24 26  2  0
 24 27  1  0
 27 28  1  0
 28 29  1  1
 28 30  2  0
 28 31  1  0
 31 32  1  0
 32 33  1  0
 33 34  1  6
 33 35  1  0
 33 36  1  0
 36 37  1  1
 36 38  1  0
 38 39  2  0
 38 40  1  0
 40 41  1  0
 41 42  1  0
 42 43  1  0
 43 44  2  0
 43 45  1  0
 45 46  1  0
 46 47  1  0
 47 48  1  0
 48 49  1  0
 49 50  2  0
 49 51  1  0
 51 52  1  0
 51 53  1  0
 53 54  1  0
 53 55  2  0
M  CHG  2  53   1  54  -1
M  END
$$$$
