
     RDKit          3D

 55 57  0  0  0  0  0  0  0  0999 V2000
   25.3555   17.0218   16.7481 N   0  0  0  0  0  0  0  0  0  0  0  0
   25.9252   18.2349   17.0033 C   0  0  0  0  0  0  0  0  0  0  0  0
   25.1885   19.3561   16.8622 N   0  0  0  0  0  0  0  0  0  0  0  0
   23.9138   19.3258   16.4798 C   0  0  0  0  0  0  0  0  0  0  0  0
   23.3439   18.0752   16.2219 C   0  0  0  0  0  0  0  0  0  0  0  0
   24.0787   16.9186   16.3599 C   0  0  0  0  0  0  0  0  0  0  0  0
   23.4857   15.6651   16.0942 N   0  0  0  0  0  0  0  0  0  0  0  0
   22.0796   18.3480   15.8640 N   0  0  0  0  0  0  0  0  0  0  0  0
   21.8901   19.6890   15.9015 C   0  0  0  0  0  0  0  0  0  0  0  0
   23.0174   20.3030   16.2809 N   0  0  0  0  0  0  0  0  0  0  0  0
   23.1518   21.7297   16.4199 C   0  0  1  0  0  0  0  0  0  0  0  0
   23.6777   22.3603   15.1701 C   0  0  2  0  0  0  0  0  0  0  0  0
   25.0496   22.6318   15.3736 O   0  0  0  0  0  0  0  0  0  0  0  0
   22.9706   23.7281   15.1741 C   0  0  2  0  0  0  0  0  0  0  0  0
   23.8866   24.7523   15.0216 O   0  0  0  0  0  0  0  0  0  0  0  0
   22.3475   23.7119   16.5321 C   0  0  2  0  0  0  0  0  0  0  0  0
   21.9240   22.3619   16.6031 O   0  0  0  0  0  0  0  0  0  0  0  0
   21.2222   24.6773   16.7276 C   0  0  0  0  0  0  0  0  0  0  0  0
   20.0607   23.9630   16.8836 O   0  0  0  0  0  0  0  0  0  0  0  0
   22.8939   25.6317   12.7554 O   0  0  0  0  0  0  0  0  0  0  0  0
   23.2213   26.0379   14.1563 P   0  0  1  0  0  5  0  0  0  0  0  0
   21.7576   26.5341   14.8876 O   0  0  0  0  0  0  0  0  0  0  0  0
   24.3017   27.3484   14.0751 O   0  0  0  0  0  0  0  0  0  0  0  0
   19.1843   24.4212   18.2462 P   0  0  1  0  0  5  0  0  0  0  0  0
   19.1099   26.1045   18.4167 O   0  0  0  0  0  0  0  0  0  0  0  0
   17.7777   23.8651   18.2121 O   0  0  0  0  0  0  0  0  0  0  0  0
   19.9538   23.7793   19.6105 O   0  0  0  0  0  0  0  0  0  0  0  0
   18.8233   23.2622   20.7580 P   0  0  1  0  0  5  0  0  0  0  0  0
   19.0850   23.9120   22.2760 O   0  0  0  0  0  0  0  0  0  0  0  0
   17.4078   23.6183   20.3209 O   0  0  0  0  0  0  0  0  0  0  0  0
   18.9058   21.5788   20.8085 O   0  0  0  0  0  0  0  0  0  0  0  0
   18.8423   21.1040   19.5054 C   0  0  0  0  0  0  0  0  0  0  0  0
   19.3881   19.6691   19.4269 C   0  0  2  0  0  0  0  0  0  0  0  0
   18.2907   18.8533   18.7954 C   0  0  0  0  0  0  0  0  0  0  0  0
   19.6676   19.2241   20.8254 C   0  0  0  0  0  0  0  0  0  0  0  0
   20.6222   19.7723   18.5585 C   0  0  1  0  0  0  0  0  0  0  0  0
   21.4358   20.7538   19.1577 O   0  0  0  0  0  0  0  0  0  0  0  0
   21.3926   18.5273   18.4692 C   0  0  0  0  0  0  0  0  0  0  0  0
   20.9762   17.6360   17.6587 O   0  0  0  0  0  0  0  0  0  0  0  0
   22.5569   18.2206   19.1993 N   0  0  0  0  0  0  0  0  0  0  0  0
   23.1230   16.8973   19.3047 C   0  0  0  0  0  0  0  0  0  0  0  0
   24.2036   16.6611   18.2995 C   0  0  0  0  0  0  0  0  0  0  0  0
   25.5386   16.6920   18.9878 C   0  0  0  0  0  0  0  0  0  0  0  0
   25.6009   16.9646   20.2124 O   0  0  0  0  0  0  0  0  0  0  0  0
   26.7326   16.4215   18.2887 N   0  0  0  0  0  0  0  0  0  0  0  0
   28.0606   16.5585   18.8175 C   0  0  0  0  0  0  0  0  0  0  0  0
   28.6340   15.1793   19.0773 C   0  0  0  0  0  0  0  0  0  0  0  0
   29.5736   14.4960   17.7363 S   0  0  0  0  0  0  0  0  0  0  0  0
   30.5313   15.6103   16.8243 C   0  0  0  0  0  0  0  0  0  0  0  0
   30.1704   16.8193   16.8588 O   0  0  0  0  0  0  0  0  0  0  0  0
   31.7050   15.3195   16.0185 C   0  0  0  0  0  0  0  0  0  0  0  0
   32.4587   14.0897   16.4349 C   0  0  0  0  0  0  0  0  0  0  0  0
   31.4490   15.3341   14.5765 N   0  0  0  0  0  4  0  0  0  0  0  0
   30.9776   16.4727   13.9790 O   0  0  0  0  0  1  0  0  0  0  0  0
   31.6634   14.2989   13.9380 O   0  0  0  0  0  0  0  0  0  0  0  0
  1  2  2  0
  1  6  1  0
  2  3  1  0
  3  4  2  0
  4  5  1  0
  4 10  1  0
  5  6  2  0
  5  8  1  0
  6  7  1  0
  8  9  2  0
  9 10  1  0
 11 10  1  6
 11 12  1  0
 11 17  1  0
 12 13  1  1
 12 14  1  0
 14 15  1  1
 14 16  1  0
 15 21  1  0
 16 17  1  0
 16 18  1  6
 18 19  1  0
 19 24  1  0
 21 20  2  0
 21 22  1  1
 21 23  1  0
 24 25  1  1
 24 26  2  0
 24 27  1  0
 27 28  1  0
 28 29  1  1
 28 30  2  0
 28 31  1  0
 31 32  1  0
 32 33  1  0
 33 34  1  6
 33 35  1  0
 33 36  1  0
 36 37  1  1
 36 38  1  0
 38 39  2  0
 38 40  1  0
 40 41  1  0
 41 42  1  0
 42 43  1  0
 43 44  2  0
 43 45  1  0
 45 46  1  0
 46 47  1  0
 47 48  1  0
 48 49  1  0
 49 50  2  0
 49 51  1  0
 51 52  1  0
 51 53  1  0
 53 54  1  0
 53 55  2  0
M  CHG  2  53   1  54  -1
M  END
$$$$
