
     RDKit          3D

 55 57  0  0  0  0  0  0  0  0999 V2000
   33.4090  -32.1503   26.9895 N   0  0  0  0  0  0  0  0  0  0  0  0
   32.1285  -32.4688   27.3360 C   0  0  0  0  0  0  0  0  0  0  0  0
   31.6473  -32.0729   28.5325 N   0  0  0  0  0  0  0  0  0  0  0  0
   32.3802  -31.3762   29.3981 C   0  0  0  0  0  0  0  0  0  0  0  0
   33.6906  -31.0572   29.0289 C   0  0  0  0  0  0  0  0  0  0  0  0
   34.2008  -31.4518   27.8121 C   0  0  0  0  0  0  0  0  0  0  0  0
   35.5269  -31.1207   27.4575 N   0  0  0  0  0  0  0  0  0  0  0  0
   34.1768  -30.3678   30.0726 N   0  0  0  0  0  0  0  0  0  0  0  0
   33.2169  -30.2723   31.0240 C   0  0  0  0  0  0  0  0  0  0  0  0
   32.1023  -30.8922   30.6174 N   0  0  0  0  0  0  0  0  0  0  0  0
   30.8947  -30.9751   31.3971 C   0  0  1  0  0  0  0  0  0  0  0  0
   30.4807  -32.3936   31.6266 C   0  0  2  0  0  0  0  0  0  0  0  0
   29.4255  -32.6805   30.7314 O   0  0  0  0  0  0  0  0  0  0  0  0
   29.8413  -32.3230   33.0256 C   0  0  2  0  0  0  0  0  0  0  0  0
   28.5784  -32.8853   33.0148 O   0  0  0  0  0  0  0  0  0  0  0  0
   29.8101  -30.8445   33.2397 C   0  0  2  0  0  0  0  0  0  0  0  0
   31.0630  -30.4797   32.6882 O   0  0  0  0  0  0  0  0  0  0  0  0
   29.6615  -30.4104   34.6631 C   0  0  0  0  0  0  0  0  0  0  0  0
   29.9180  -29.0640   34.7346 O   0  0  0  0  0  0  0  0  0  0  0  0
   27.6602  -32.9338   35.4742 O   0  0  0  0  0  0  0  0  0  0  0  0
   28.2991  -33.7774   34.4183 P   0  0  1  0  0  5  0  0  0  0  0  0
   27.2207  -35.0618   34.0849 O   0  0  0  0  0  0  0  0  0  0  0  0
   29.7513  -34.3909   35.0558 O   0  0  0  0  0  0  0  0  0  0  0  0
   29.9280  -28.4789   36.3132 P   0  0  1  0  0  5  0  0  0  0  0  0
   30.2408  -26.8155   36.3717 O   0  0  0  0  0  0  0  0  0  0  0  0
   28.6181  -28.7607   37.0160 O   0  0  0  0  0  0  0  0  0  0  0  0
   31.1486  -29.2827   37.1675 O   0  0  0  0  0  0  0  0  0  0  0  0
   32.3040  -28.1910   37.7468 P   0  0  1  0  0  5  0  0  0  0  0  0
   31.6966  -26.6493   37.9688 O   0  0  0  0  0  0  0  0  0  0  0  0
   32.8872  -28.6724   39.0695 O   0  0  0  0  0  0  0  0  0  0  0  0
   33.5714  -28.1774   36.6346 O   0  0  0  0  0  0  0  0  0  0  0  0
   33.0615  -27.7881   35.4034 C   0  0  0  0  0  0  0  0  0  0  0  0
   34.2008  -27.4164   34.4408 C   0  0  2  0  0  0  0  0  0  0  0  0
   34.9703  -26.3200   35.1298 C   0  0  0  0  0  0  0  0  0  0  0  0
   33.5716  -26.9333   33.1748 C   0  0  0  0  0  0  0  0  0  0  0  0
   35.0016  -28.6894   34.2802 C   0  0  1  0  0  0  0  0  0  0  0  0
   34.0787  -29.6806   33.8929 O   0  0  0  0  0  0  0  0  0  0  0  0
   36.0480  -28.6087   33.2555 C   0  0  0  0  0  0  0  0  0  0  0  0
   36.0294  -27.6010   32.4753 O   0  0  0  0  0  0  0  0  0  0  0  0
   37.0787  -29.5459   33.0498 N   0  0  0  0  0  0  0  0  0  0  0  0
   38.0162  -29.4929   31.9540 C   0  0  0  0  0  0  0  0  0  0  0  0
   38.9082  -28.2959   32.0282 C   0  0  0  0  0  0  0  0  0  0  0  0
   39.1598  -27.7764   30.6412 C   0  0  0  0  0  0  0  0  0  0  0  0
   38.4650  -28.1982   29.6835 O   0  0  0  0  0  0  0  0  0  0  0  0
   40.1639  -26.8205   30.3851 N   0  0  0  0  0  0  0  0  0  0  0  0
   41.0771  -26.8434   29.2772 C   0  0  0  0  0  0  0  0  0  0  0  0
   40.6974  -25.7473   28.3009 C   0  0  0  0  0  0  0  0  0  0  0  0
   41.4568  -24.1742   28.6114 S   0  0  0  0  0  0  0  0  0  0  0  0
   40.4601  -22.7809   28.3745 C   0  0  0  0  0  0  0  0  0  0  0  0
   39.2231  -22.9926   28.2391 O   0  0  0  0  0  0  0  0  0  0  0  0
   40.8783  -21.3908   28.3105 C   0  0  0  0  0  0  0  0  0  0  0  0
   42.0710  -21.1377   27.4346 C   0  0  0  0  0  0  0  0  0  0  0  0
   39.7865  -20.4590   28.0195 N   0  0  0  0  0  4  0  0  0  0  0  0
   39.6712  -19.2981   28.7367 O   0  0  0  0  0  1  0  0  0  0  0  0
   38.9884  -20.7603   27.1265 O   0  0  0  0  0  0  0  0  0  0  0  0
  1  2  2  0
  1  6  1  0
  2  3  1  0
  3  4  2  0
  4  5  1  0
  4 10  1  0
  5  6  2  0
  5  8  1  0
  6  7  1  0
  8  9  2  0
  9 10  1  0
 11 10  1  6
 11 12  1  0
 11 17  1  0
 12 13  1  6
 12 14  1  0
 14 15  1  6
 14 16  1  0
 15 21  1  0
 16 17  1  0
 16 18  1  1
 18 19  1  0
 19 24  1  0
 21 20  2  0
 21 22  1  6
 21 23  1  0
 24 25  1  6
 24 26  2  0
 24 27  1  0
 27 28  1  0
 28 29  1  1
 28 30  2  0
 28 31  1  0
 31 32  1  0
 32 33  1  0
 33 34  1  1
 33 35  1  0
 33 36  1  0
 36 37  1  6
 36 38  1  0
 38 39  2  0
 38 40  1  0
 40 41  1  0
 41 42  1  0
 42 43  1  0
 43 44  2  0
 43 45  1  0
 45 46  1  0
 46 47  1  0
 47 48  1  0
 48 49  1  0
 49 50  2  0
 49 51  1  0
 51 52  1  0
 51 53  1  0
 53 54  1  0
 53 55  2  0
M  CHG  2  53   1  54  -1
M  END
$$$$
