
     RDKit          3D

 55 57  0  0  0  0  0  0  0  0999 V2000
   23.6310   17.8307   13.0508 N   0  0  0  0  0  0  0  0  0  0  0  0
   22.3508   18.1472   12.7013 C   0  0  0  0  0  0  0  0  0  0  0  0
   21.9281   19.4231   12.8171 N   0  0  0  0  0  0  0  0  0  0  0  0
   22.7189   20.3962   13.2637 C   0  0  0  0  0  0  0  0  0  0  0  0
   24.0283   20.0564   13.6179 C   0  0  0  0  0  0  0  0  0  0  0  0
   24.4794   18.7599   13.5071 C   0  0  0  0  0  0  0  0  0  0  0  0
   25.8049   18.4363   13.8705 N   0  0  0  0  0  0  0  0  0  0  0  0
   24.5787   21.2114   14.0229 N   0  0  0  0  0  0  0  0  0  0  0  0
   23.6567   22.1990   13.9213 C   0  0  0  0  0  0  0  0  0  0  0  0
   22.5036   21.7061   13.4532 N   0  0  0  0  0  0  0  0  0  0  0  0
   21.3203   22.4952   13.2295 C   0  0  1  0  0  0  0  0  0  0  0  0
   20.2431   22.1684   14.2140 C   0  0  2  0  0  0  0  0  0  0  0  0
   19.3054   21.3374   13.5605 O   0  0  0  0  0  0  0  0  0  0  0  0
   19.5468   23.5295   14.3972 C   0  0  2  0  0  0  0  0  0  0  0  0
   18.1830   23.4107   14.2045 O   0  0  0  0  0  0  0  0  0  0  0  0
   20.2118   24.3259   13.3220 C   0  0  2  0  0  0  0  0  0  0  0  0
   21.5425   23.8543   13.4401 O   0  0  0  0  0  0  0  0  0  0  0  0
   20.1135   25.8102   13.4760 C   0  0  0  0  0  0  0  0  0  0  0  0
   20.6926   26.1614   14.6696 O   0  0  0  0  0  0  0  0  0  0  0  0
   17.8460   21.1053   15.4153 O   0  0  0  0  0  0  0  0  0  0  0  0
   17.4647   22.5500   15.4643 P   0  0  1  0  0  5  0  0  0  0  0  0
   18.0073   23.1591   16.9670 O   0  0  0  0  0  0  0  0  0  0  0  0
   15.7687   22.6397   15.3812 O   0  0  0  0  0  0  0  0  0  0  0  0
   22.0566   27.1299   14.4796 P   0  0  1  0  0  5  0  0  0  0  0  0
   23.0319   26.6083   13.1970 O   0  0  0  0  0  0  0  0  0  0  0  0
   21.6802   28.5783   14.2572 O   0  0  0  0  0  0  0  0  0  0  0  0
   22.9637   27.0519   15.9068 O   0  0  0  0  0  0  0  0  0  0  0  0
   22.1813   26.1077   17.0725 P   0  0  1  0  0  5  0  0  0  0  0  0
   21.5043   27.0134   18.3039 O   0  0  0  0  0  0  0  0  0  0  0  0
   21.0829   25.2646   16.4367 O   0  0  0  0  0  0  0  0  0  0  0  0
   23.3255   25.0311   17.6847 O   0  0  0  0  0  0  0  0  0  0  0  0
   22.9290   23.7432   17.3508 C   0  0  0  0  0  0  0  0  0  0  0  0
   23.6671   22.7099   18.2170 C   0  0  2  0  0  0  0  0  0  0  0  0
   24.9976   23.3347   18.5459 C   0  0  0  0  0  0  0  0  0  0  0  0
   23.8295   21.4750   17.3920 C   0  0  0  0  0  0  0  0  0  0  0  0
   22.7852   22.5237   19.4316 C   0  0  1  0  0  0  0  0  0  0  0  0
   21.4701   22.7826   18.9982 O   0  0  0  0  0  0  0  0  0  0  0  0
   22.8264   21.1700   19.9949 C   0  0  0  0  0  0  0  0  0  0  0  0
   22.2153   20.9734   21.0960 O   0  0  0  0  0  0  0  0  0  0  0  0
   23.4820   20.0587   19.4309 N   0  0  0  0  0  0  0  0  0  0  0  0
   24.6126   19.3931   20.0320 C   0  0  0  0  0  0  0  0  0  0  0  0
   25.1937   18.3446   19.1393 C   0  0  0  0  0  0  0  0  0  0  0  0
   25.0948   17.0061   19.8143 C   0  0  0  0  0  0  0  0  0  0  0  0
   25.3835   15.9642   19.1748 O   0  0  0  0  0  0  0  0  0  0  0  0
   24.6826   16.8886   21.1574 N   0  0  0  0  0  0  0  0  0  0  0  0
   23.3740   16.4959   21.5992 C   0  0  0  0  0  0  0  0  0  0  0  0
   23.2950   14.9821   21.6260 C   0  0  0  0  0  0  0  0  0  0  0  0
   21.7868   14.3242   22.2897 S   0  0  0  0  0  0  0  0  0  0  0  0
   21.6642   14.2756   24.0141 C   0  0  0  0  0  0  0  0  0  0  0  0
   22.3665   15.1096   24.6500 O   0  0  0  0  0  0  0  0  0  0  0  0
   20.8477   13.3849   24.8211 C   0  0  0  0  0  0  0  0  0  0  0  0
   20.4602   12.1046   24.1395 C   0  0  0  0  0  0  0  0  0  0  0  0
   21.3870   13.1422   26.1610 N   0  0  0  0  0  4  0  0  0  0  0  0
   21.7580   11.8759   26.5278 O   0  0  0  0  0  1  0  0  0  0  0  0
   21.4836   14.1029   26.9310 O   0  0  0  0  0  0  0  0  0  0  0  0
  1  2  2  0
  1  6  1  0
  2  3  1  0
  3  4  2  0
  4  5  1  0
  4 10  1  0
  5  6  2  0
  5  8  1  0
  6  7  1  0
  8  9  2  0
  9 10  1  0
 11 10  1  1
 11 12  1  0
 11 17  1  0
 12 13  1  6
 12 14  1  0
 14 15  1  6
 14 16  1  0
 15 21  1  0
 16 17  1  0
 16 18  1  1
 18 19  1  0
 19 24  1  0
 21 20  2  0
 21 22  1  1
 21 23  1  0
 24 25  1  6
 24 26  2  0
 24 27  1  0
 27 28  1  0
 28 29  1  1
 28 30  2  0
 28 31  1  0
 31 32  1  0
 32 33  1  0
 33 34  1  1
 33 35  1  0
 33 36  1  0
 36 37  1  6
 36 38  1  0
 38 39  2  0
 38 40  1  0
 40 41  1  0
 41 42  1  0
 42 43  1  0
 43 44  2  0
 43 45  1  0
 45 46  1  0
 46 47  1  0
 47 48  1  0
 48 49  1  0
 49 50  2  0
 49 51  1  0
 51 52  1  0
 51 53  1  0
 53 54  1  0
 53 55  2  0
M  CHG  2  53   1  54  -1
M  END
$$$$
