
     RDKit          3D

 55 57  0  0  0  0  0  0  0  0999 V2000
   38.3063    7.9431   42.5298 N   0  0  0  0  0  0  0  0  0  0  0  0
   39.2258    8.2687   41.5760 C   0  0  0  0  0  0  0  0  0  0  0  0
   39.6368    7.3265   40.7024 N   0  0  0  0  0  0  0  0  0  0  0  0
   39.1760    6.0781   40.7343 C   0  0  0  0  0  0  0  0  0  0  0  0
   38.2341    5.7595   41.7175 C   0  0  0  0  0  0  0  0  0  0  0  0
   37.8013    6.7068   42.6187 C   0  0  0  0  0  0  0  0  0  0  0  0
   36.8501    6.3657   43.6049 N   0  0  0  0  0  0  0  0  0  0  0  0
   37.9571    4.4627   41.5117 N   0  0  0  0  0  0  0  0  0  0  0  0
   38.6890    4.0163   40.4626 C   0  0  0  0  0  0  0  0  0  0  0  0
   39.4460    5.0066   39.9746 N   0  0  0  0  0  0  0  0  0  0  0  0
   40.3421    4.8618   38.8570 C   0  0  1  0  0  0  0  0  0  0  0  0
   41.6940    4.3908   39.2893 C   0  0  2  0  0  0  0  0  0  0  0  0
   42.5542    5.5120   39.2970 O   0  0  0  0  0  0  0  0  0  0  0  0
   42.1349    3.5273   38.0931 C   0  0  2  0  0  0  0  0  0  0  0  0
   43.3861    3.9115   37.6479 O   0  0  0  0  0  0  0  0  0  0  0  0
   41.0536    3.8439   37.1117 C   0  0  2  0  0  0  0  0  0  0  0  0
   39.9277    3.8697   37.9711 O   0  0  0  0  0  0  0  0  0  0  0  0
   40.9003    2.8614   35.9946 C   0  0  0  0  0  0  0  0  0  0  0  0
   41.2318    1.6153   36.4649 O   0  0  0  0  0  0  0  0  0  0  0  0
   44.4232    1.5244   37.3003 O   0  0  0  0  0  0  0  0  0  0  0  0
   44.5604    2.7853   38.0915 P   0  0  1  0  0  5  0  0  0  0  0  0
   46.1178    3.4119   37.7665 O   0  0  0  0  0  0  0  0  0  0  0  0
   44.4314    2.3788   39.7376 O   0  0  0  0  0  0  0  0  0  0  0  0
   40.0085    0.9116   37.3831 P   0  0  1  0  0  5  0  0  0  0  0  0
   40.5944    0.2727   38.8380 O   0  0  0  0  0  0  0  0  0  0  0  0
   38.9053    1.9015   37.6865 O   0  0  0  0  0  0  0  0  0  0  0  0
   39.3287   -0.3492   36.4809 O   0  0  0  0  0  0  0  0  0  0  0  0
   38.9439    0.1636   34.9153 P   0  0  1  0  0  5  0  0  0  0  0  0
   37.7511   -0.7615   34.1965 O   0  0  0  0  0  0  0  0  0  0  0  0
   38.4870    1.6171   34.9196 O   0  0  0  0  0  0  0  0  0  0  0  0
   40.3673    0.1057   34.0131 O   0  0  0  0  0  0  0  0  0  0  0  0
   40.0581    0.4239   32.6976 C   0  0  0  0  0  0  0  0  0  0  0  0
   41.2665    0.1682   31.7825 C   0  0  2  0  0  0  0  0  0  0  0  0
   42.4689    0.6333   32.5614 C   0  0  0  0  0  0  0  0  0  0  0  0
   41.0656    0.9814   30.5454 C   0  0  0  0  0  0  0  0  0  0  0  0
   41.2596   -1.3251   31.5420 C   0  0  1  0  0  0  0  0  0  0  0  0
   39.9676   -1.7667   31.8883 O   0  0  0  0  0  0  0  0  0  0  0  0
   41.5179   -1.7045   30.1488 C   0  0  0  0  0  0  0  0  0  0  0  0
   40.5172   -2.0507   29.4394 O   0  0  0  0  0  0  0  0  0  0  0  0
   42.7756   -1.7231   29.5159 N   0  0  0  0  0  0  0  0  0  0  0  0
   43.8822   -0.8739   29.8856 C   0  0  0  0  0  0  0  0  0  0  0  0
   45.1644   -1.3040   29.2493 C   0  0  0  0  0  0  0  0  0  0  0  0
   46.3145   -0.9089   30.1314 C   0  0  0  0  0  0  0  0  0  0  0  0
   46.2954   -1.2103   31.3507 O   0  0  0  0  0  0  0  0  0  0  0  0
   47.4231   -0.2025   29.6218 N   0  0  0  0  0  0  0  0  0  0  0  0
   48.6462   -0.7911   29.1533 C   0  0  0  0  0  0  0  0  0  0  0  0
   48.3221   -1.8319   28.0997 C   0  0  0  0  0  0  0  0  0  0  0  0
   49.4044   -3.2377   28.0804 S   0  0  0  0  0  0  0  0  0  0  0  0
   48.8904   -4.5888   27.1311 C   0  0  0  0  0  0  0  0  0  0  0  0
   47.9005   -4.3968   26.3720 O   0  0  0  0  0  0  0  0  0  0  0  0
   49.4630   -5.9241   27.1046 C   0  0  0  0  0  0  0  0  0  0  0  0
   48.6410   -6.9695   27.8013 C   0  0  0  0  0  0  0  0  0  0  0  0
   49.8761   -6.3624   25.7696 N   0  0  0  0  0  4  0  0  0  0  0  0
   48.9854   -6.3156   24.7303 O   0  0  0  0  0  1  0  0  0  0  0  0
   51.0316   -6.7737   25.6250 O   0  0  0  0  0  0  0  0  0  0  0  0
  1  2  2  0
  1  6  1  0
  2  3  1  0
  3  4  2  0
  4  5  1  0
  4 10  1  0
  5  6  2  0
  5  8  1  0
  6  7  1  0
  8  9  2  0
  9 10  1  0
 11 10  1  1
 11 12  1  0
 11 17  1  0
 12 13  1  6
 12 14  1  0
 14 15  1  6
 14 16  1  0
 15 21  1  0
 16 17  1  0
 16 18  1  6
 18 19  1  0
 19 24  1  0
 21 20  2  0
 21 22  1  1
 21 23  1  0
 24 25  1  1
 24 26  2  0
 24 27  1  0
 27 28  1  0
 28 29  1  6
 28 30  2  0
 28 31  1  0
 31 32  1  0
 32 33  1  0
 33 34  1  1
 33 35  1  0
 33 36  1  0
 36 37  1  6
 36 38  1  0
 38 39  2  0
 38 40  1  0
 40 41  1  0
 41 42  1  0
 42 43  1  0
 43 44  2  0
 43 45  1  0
 45 46  1  0
 46 47  1  0
 47 48  1  0
 48 49  1  0
 49 50  2  0
 49 51  1  0
 51 52  1  0
 51 53  1  0
 53 54  1  0
 53 55  2  0
M  CHG  2  53   1  54  -1
M  END
$$$$
