
     RDKit          3D

 55 57  0  0  0  0  0  0  0  0999 V2000
   22.1104   21.8959   11.4360 N   0  0  0  0  0  0  0  0  0  0  0  0
   23.0651   21.0079   11.8375 C   0  0  0  0  0  0  0  0  0  0  0  0
   22.7919   20.1497   12.8418 N   0  0  0  0  0  0  0  0  0  0  0  0
   21.6151   20.1346   13.4637 C   0  0  0  0  0  0  0  0  0  0  0  0
   20.6467   21.0506   13.0411 C   0  0  0  0  0  0  0  0  0  0  0  0
   20.9055   21.9350   12.0176 C   0  0  0  0  0  0  0  0  0  0  0  0
   19.9150   22.8530   11.6055 N   0  0  0  0  0  0  0  0  0  0  0  0
   19.5877   20.8096   13.8293 N   0  0  0  0  0  0  0  0  0  0  0  0
   19.8936   19.8037   14.6839 C   0  0  0  0  0  0  0  0  0  0  0  0
   21.1444   19.3793   14.4666 N   0  0  0  0  0  0  0  0  0  0  0  0
   21.7774   18.3199   15.2083 C   0  0  1  0  0  0  0  0  0  0  0  0
   22.4697   18.8362   16.4290 C   0  0  2  0  0  0  0  0  0  0  0  0
   23.8523   18.8956   16.1427 O   0  0  0  0  0  0  0  0  0  0  0  0
   22.2924   17.6713   17.4202 C   0  0  2  0  0  0  0  0  0  0  0  0
   23.5086   17.3042   17.9654 O   0  0  0  0  0  0  0  0  0  0  0  0
   21.7286   16.6239   16.5159 C   0  0  2  0  0  0  0  0  0  0  0  0
   20.8561   17.4115   15.7250 O   0  0  0  0  0  0  0  0  0  0  0  0
   21.0213   15.5011   17.2056 C   0  0  0  0  0  0  0  0  0  0  0  0
   20.1244   16.0360   18.0962 O   0  0  0  0  0  0  0  0  0  0  0  0
   24.4032   19.7277   18.4347 O   0  0  0  0  0  0  0  0  0  0  0  0
   24.0340   18.4392   19.0966 P   0  0  1  0  0  5  0  0  0  0  0  0
   22.7738   18.7869   20.1986 O   0  0  0  0  0  0  0  0  0  0  0  0
   25.4018   17.8803   19.9383 O   0  0  0  0  0  0  0  0  0  0  0  0
   18.5809   15.3795   17.9503 P   0  0  1  0  0  5  0  0  0  0  0  0
   17.4775   16.4895   17.3032 O   0  0  0  0  0  0  0  0  0  0  0  0
   18.5886   14.1329   17.0929 O   0  0  0  0  0  0  0  0  0  0  0  0
   18.0477   14.9337   19.4939 O   0  0  0  0  0  0  0  0  0  0  0  0
   19.2564   14.1030   20.3372 P   0  0  1  0  0  5  0  0  0  0  0  0
   18.6669   12.8249   21.2394 O   0  0  0  0  0  0  0  0  0  0  0  0
   20.3132   13.5674   19.3792 O   0  0  0  0  0  0  0  0  0  0  0  0
   20.0272   15.2272   21.3299 O   0  0  0  0  0  0  0  0  0  0  0  0
   19.7146   16.4982   20.8669 C   0  0  0  0  0  0  0  0  0  0  0  0
   19.8956   17.5388   21.9838 C   0  0  2  0  0  0  0  0  0  0  0  0
   18.8033   17.2551   22.9813 C   0  0  0  0  0  0  0  0  0  0  0  0
   19.7350   18.8881   21.3627 C   0  0  0  0  0  0  0  0  0  0  0  0
   21.2803   17.2782   22.5337 C   0  0  1  0  0  0  0  0  0  0  0  0
   21.3473   15.8914   22.7718 O   0  0  0  0  0  0  0  0  0  0  0  0
   22.3637   17.6403   21.6135 C   0  0  0  0  0  0  0  0  0  0  0  0
   23.4455   16.9704   21.6877 O   0  0  0  0  0  0  0  0  0  0  0  0
   22.3222   18.6654   20.6491 N   0  0  0  0  0  0  0  0  0  0  0  0
   23.3331   18.8708   19.6399 C   0  0  0  0  0  0  0  0  0  0  0  0
   24.1545   20.0920   19.9003 C   0  0  0  0  0  0  0  0  0  0  0  0
   23.9801   21.0602   18.7648 C   0  0  0  0  0  0  0  0  0  0  0  0
   23.5771   20.6451   17.6498 O   0  0  0  0  0  0  0  0  0  0  0  0
   24.2600   22.4332   18.9198 N   0  0  0  0  0  0  0  0  0  0  0  0
   24.1444   23.4312   17.8938 C   0  0  0  0  0  0  0  0  0  0  0  0
   24.8248   24.7026   18.3620 C   0  0  0  0  0  0  0  0  0  0  0  0
   24.3390   26.1726   17.4955 S   0  0  0  0  0  0  0  0  0  0  0  0
   23.5315   25.9409   15.9839 C   0  0  0  0  0  0  0  0  0  0  0  0
   23.4967   24.7591   15.5419 O   0  0  0  0  0  0  0  0  0  0  0  0
   22.8876   26.9482   15.1580 C   0  0  0  0  0  0  0  0  0  0  0  0
   22.6587   26.5338   13.7333 C   0  0  0  0  0  0  0  0  0  0  0  0
   21.6778   27.5167   15.7565 N   0  0  0  0  0  4  0  0  0  0  0  0
   20.4700   27.3640   15.1292 O   0  0  0  0  0  1  0  0  0  0  0  0
   21.7906   28.1318   16.8215 O   0  0  0  0  0  0  0  0  0  0  0  0
  1  2  2  0
  1  6  1  0
  2  3  1  0
  3  4  2  0
  4  5  1  0
  4 10  1  0
  5  6  2  0
  5  8  1  0
  6  7  1  0
  8  9  2  0
  9 10  1  0
 11 10  1  1
 11 12  1  0
 11 17  1  0
 12 13  1  6
 12 14  1  0
 14 15  1  6
 14 16  1  0
 15 21  1  0
 16 17  1  0
 16 18  1  1
 18 19  1  0
 19 24  1  0
 21 20  2  0
 21 22  1  1
 21 23  1  0
 24 25  1  6
 24 26  2  0
 24 27  1  0
 27 28  1  0
 28 29  1  1
 28 30  2  0
 28 31  1  0
 31 32  1  0
 32 33  1  0
 33 34  1  1
 33 35  1  0
 33 36  1  0
 36 37  1  6
 36 38  1  0
 38 39  2  0
 38 40  1  0
 40 41  1  0
 41 42  1  0
 42 43  1  0
 43 44  2  0
 43 45  1  0
 45 46  1  0
 46 47  1  0
 47 48  1  0
 48 49  1  0
 49 50  2  0
 49 51  1  0
 51 52  1  0
 51 53  1  0
 53 54  1  0
 53 55  2  0
M  CHG  2  53   1  54  -1
M  END
$$$$
