
     RDKit          3D

 34 37  0  0  0  0  0  0  0  0999 V2000
  -20.0057    8.2567   -4.5401 C   0  0  0  0  0  0  0  0  0  0  0  0
  -14.5655    8.4294   -0.2575 C   0  0  0  0  0  0  0  0  0  0  0  0
  -11.0507    9.7219   -0.1062 C   0  0  0  0  0  0  0  0  0  0  0  0
  -26.4435   10.1357    0.6848 C   0  0  0  0  0  0  0  0  0  0  0  0
  -25.2528    9.2577    0.4894 C   0  0  0  0  0  0  0  0  0  0  0  0
  -25.1681    7.9954    1.0158 C   0  0  0  0  0  0  0  0  0  0  0  0
  -24.0488    7.2253    0.8072 C   0  0  0  0  0  0  0  0  0  0  0  0
  -22.9699    7.6687    0.0721 C   0  0  0  0  0  0  0  0  0  0  0  0
  -20.3005    7.6158   -1.0271 C   0  0  1  0  0  0  0  0  0  0  0  0
  -19.6991    8.4147   -3.0501 C   0  0  2  0  0  0  0  0  0  0  0  0
  -18.2359    8.1408   -2.7754 C   0  0  1  0  0  0  0  0  0  0  0  0
  -18.0044    8.3141   -1.2980 C   0  0  1  0  0  0  0  0  0  0  0  0
  -15.7660    9.0606   -0.4063 C   0  0  0  0  0  0  0  0  0  0  0  0
  -13.3017    8.9183    0.2675 C   0  0  0  0  0  0  0  0  0  0  0  0
  -12.2802    9.2483   -0.5771 C   0  0  0  0  0  0  0  0  0  0  0  0
  -10.8458    9.8669    1.2563 C   0  0  0  0  0  0  0  0  0  0  0  0
  -11.8706    9.5364    2.1121 C   0  0  0  0  0  0  0  0  0  0  0  0
  -13.0824    9.0681    1.6207 C   0  0  0  0  0  0  0  0  0  0  0  0
  -18.8867    7.3170   -0.5804 C   0  0  1  0  0  0  0  0  0  0  0  0
  -23.0518    8.9352   -0.4576 C   0  0  0  0  0  0  0  0  0  0  0  0
  -24.1825    9.7347   -0.2566 C   0  0  0  0  0  0  0  0  0  0  0  0
  -12.4401    9.1209   -1.9176 F   0  0  0  0  0  0  0  0  0  0  0  0
  -10.0352   10.0503   -0.9398 F   0  0  0  0  0  0  0  0  0  0  0  0
  -11.6769    9.6754    3.4381 F   0  0  0  0  0  0  0  0  0  0  0  0
  -14.0686    8.7539    2.5199 F   0  0  0  0  0  0  0  0  0  0  0  0
  -16.6175    8.1899   -0.9329 N   0  0  0  0  0  0  0  0  0  0  0  0
   -9.5936   10.3513    1.7729 N   0  0  0  0  0  0  0  0  0  0  0  0
  -14.7252    7.1748   -0.7048 N   0  0  0  0  0  0  0  0  0  0  0  0
  -15.9525    7.0454   -1.1043 N   0  0  0  0  0  0  0  0  0  0  0  0
  -20.4183    7.4048   -2.3957 O   0  0  0  0  0  0  0  0  0  0  0  0
  -20.4513    9.5130   -4.9942 O   0  0  0  0  0  0  0  0  0  0  0  0
  -18.0084    6.7893   -3.0899 O   0  0  0  0  0  0  0  0  0  0  0  0
  -18.8021    7.4262    0.7906 O   0  0  0  0  0  0  0  0  0  0  0  0
  -21.5359    6.6441   -0.1781 S   0  0  0  0  0  0  0  0  0  0  0  0
 10  1  1  0
  1 31  1  6
  2 13  2  0
 14  2  1  0
  2 28  1  0
 15  3  2  0
  3 16  1  0
  3 23  1  0
  4  5  1  6
  6  5  2  0
  5 21  1  0
  7  6  1  0
  8  7  2  0
  8 20  1  0
 34  8  1  0
 19  9  1  0
  9 30  1  0
  9 34  1  1
 11 10  1  0
 10 30  1  1
 12 11  1  0
 11 32  1  1
 12 19  1  0
 12 26  1  6
 13 26  1  0
 14 15  1  0
 14 18  2  0
 15 22  1  0
 16 17  2  0
 16 27  1  0
 17 18  1  0
 17 24  1  0
 18 25  1  0
 19 33  1  1
 20 21  2  0
 26 29  1  0
 28 29  2  0
M  END
$$$$
