
     RDKit          3D

 34 37  0  0  0  0  0  0  0  0999 V2000
  -20.0144    9.4418    1.4608 C   0  0  0  0  0  0  0  0  0  0  0  0
  -15.4287    8.8110   -0.1446 C   0  0  0  0  0  0  0  0  0  0  0  0
  -12.3964   10.8633    0.7165 C   0  0  0  0  0  0  0  0  0  0  0  0
  -26.0818    6.0260   -5.0140 C   0  0  0  0  0  0  0  0  0  0  0  0
  -24.7677    6.5707   -4.5743 C   0  0  0  0  0  0  0  0  0  0  0  0
  -24.1989    6.2073   -3.3886 C   0  0  0  0  0  0  0  0  0  0  0  0
  -22.9612    6.7485   -3.0224 C   0  0  0  0  0  0  0  0  0  0  0  0
  -22.3131    7.6389   -3.8392 C   0  0  0  0  0  0  0  0  0  0  0  0
  -20.2582    7.7514   -1.7003 C   0  0  1  0  0  0  0  0  0  0  0  0
  -20.1974    8.3564    0.4383 C   0  0  2  0  0  0  0  0  0  0  0  0
  -19.3811    7.1288    0.6784 C   0  0  1  0  0  0  0  0  0  0  0  0
  -18.4267    6.7786   -0.4248 C   0  0  1  0  0  0  0  0  0  0  0  0
  -16.2064    7.7049    0.1947 C   0  0  0  0  0  0  0  0  0  0  0  0
  -14.0961    9.1527    0.3765 C   0  0  0  0  0  0  0  0  0  0  0  0
  -13.6279   10.4444    0.2607 C   0  0  0  0  0  0  0  0  0  0  0  0
  -11.5972    9.8942    1.3294 C   0  0  0  0  0  0  0  0  0  0  0  0
  -12.0430    8.5952    1.4572 C   0  0  0  0  0  0  0  0  0  0  0  0
  -13.2923    8.2342    0.9785 C   0  0  0  0  0  0  0  0  0  0  0  0
  -19.2107    6.6852   -1.7154 C   0  0  1  0  0  0  0  0  0  0  0  0
  -22.8714    8.0142   -5.0336 C   0  0  0  0  0  0  0  0  0  0  0  0
  -24.1038    7.4702   -5.3899 C   0  0  0  0  0  0  0  0  0  0  0  0
  -14.4191   11.3669   -0.3362 F   0  0  0  0  0  0  0  0  0  0  0  0
  -11.9632   12.1536    0.5845 F   0  0  0  0  0  0  0  0  0  0  0  0
  -11.2235    7.6922    2.0633 F   0  0  0  0  0  0  0  0  0  0  0  0
  -13.7327    6.9608    1.1030 F   0  0  0  0  0  0  0  0  0  0  0  0
  -17.3558    7.7528   -0.4998 N   0  0  0  0  0  0  0  0  0  0  0  0
  -10.3311   10.3268    1.7982 N   0  0  0  0  0  0  0  0  0  0  0  0
  -16.1629    9.4831   -1.0440 N   0  0  0  0  0  0  0  0  0  0  0  0
  -17.3104    8.8238   -1.2346 N   0  0  0  0  0  0  0  0  0  0  0  0
  -19.9380    8.8159   -0.8616 O   0  0  0  0  0  0  0  0  0  0  0  0
  -21.1531   10.1554    1.7438 O   0  0  0  0  0  0  0  0  0  0  0  0
  -18.7348    7.1607    1.9307 O   0  0  0  0  0  0  0  0  0  0  0  0
  -19.7748    5.4066   -1.7506 O   0  0  0  0  0  0  0  0  0  0  0  0
  -20.7496    8.3098   -3.3549 S   0  0  0  0  0  0  0  0  0  0  0  0
 10  1  1  1
  1 31  1  0
  2 13  2  0
 14  2  1  0
  2 28  1  0
 15  3  2  0
  3 16  1  0
  3 23  1  0
  5  4  1  0
  6  5  2  0
  5 21  1  0
  7  6  1  0
  8  7  2  0
  8 20  1  0
 34  8  1  0
 19  9  1  0
  9 30  1  0
  9 34  1  6
 11 10  1  0
 10 30  1  0
 12 11  1  0
 11 32  1  1
 12 19  1  0
 12 26  1  6
 13 26  1  0
 14 15  1  0
 14 18  2  0
 15 22  1  0
 16 17  2  0
 16 27  1  0
 17 18  1  0
 17 24  1  0
 18 25  1  0
 19 33  1  1
 20 21  2  0
 26 29  1  0
 28 29  2  0
M  END
$$$$
