
     RDKit          3D

 34 37  0  0  0  0  0  0  0  0999 V2000
  -18.7592    6.0034    1.1724 C   0  0  0  0  0  0  0  0  0  0  0  0
  -15.2049    8.8779   -0.4409 C   0  0  0  0  0  0  0  0  0  0  0  0
  -11.5687    9.8304   -0.5775 C   0  0  0  0  0  0  0  0  0  0  0  0
  -26.9422    7.8468   -3.0176 C   0  0  0  0  0  0  0  0  0  0  0  0
  -25.5608    8.2093   -2.5965 C   0  0  0  0  0  0  0  0  0  0  0  0
  -24.9292    7.5667   -1.5721 C   0  0  0  0  0  0  0  0  0  0  0  0
  -23.6298    7.9459   -1.2162 C   0  0  0  0  0  0  0  0  0  0  0  0
  -22.9835    8.9546   -1.8833 C   0  0  0  0  0  0  0  0  0  0  0  0
  -20.2082    8.0001   -1.4397 C   0  0  1  0  0  0  0  0  0  0  0  0
  -19.3074    6.4179   -0.1635 C   0  0  2  0  0  0  0  0  0  0  0  0
  -18.4283    6.0937   -1.3267 C   0  0  1  0  0  0  0  0  0  0  0  0
  -17.9904    7.2776   -2.1373 C   0  0  1  0  0  0  0  0  0  0  0  0
  -15.7533    7.8719   -1.2351 C   0  0  0  0  0  0  0  0  0  0  0  0
  -13.7990    9.0186   -0.0318 C   0  0  0  0  0  0  0  0  0  0  0  0
  -12.9034    9.6488   -0.8697 C   0  0  0  0  0  0  0  0  0  0  0  0
  -11.1277    9.3335    0.6521 C   0  0  0  0  0  0  0  0  0  0  0  0
  -12.0040    8.6992    1.5078 C   0  0  0  0  0  0  0  0  0  0  0  0
  -13.3361    8.5467    1.1578 C   0  0  0  0  0  0  0  0  0  0  0  0
  -19.2253    8.0398   -2.5651 C   0  0  1  0  0  0  0  0  0  0  0  0
  -23.6045    9.6101   -2.9147 C   0  0  0  0  0  0  0  0  0  0  0  0
  -24.8980    9.2257   -3.2620 C   0  0  0  0  0  0  0  0  0  0  0  0
  -13.3525   10.1228   -2.0558 F   0  0  0  0  0  0  0  0  0  0  0  0
  -10.7075   10.4602   -1.4330 F   0  0  0  0  0  0  0  0  0  0  0  0
  -11.5207    8.2352    2.6933 F   0  0  0  0  0  0  0  0  0  0  0  0
  -14.1985    7.9255    1.9955 F   0  0  0  0  0  0  0  0  0  0  0  0
  -17.0696    8.1013   -1.3789 N   0  0  0  0  0  0  0  0  0  0  0  0
   -9.7547    9.5216    0.9513 N   0  0  0  0  0  0  0  0  0  0  0  0
  -16.2385    9.6785   -0.1401 N   0  0  0  0  0  0  0  0  0  0  0  0
  -17.3399    9.1861   -0.7164 N   0  0  0  0  0  0  0  0  0  0  0  0
  -19.6080    7.7878   -0.2013 O   0  0  0  0  0  0  0  0  0  0  0  0
  -19.6068    5.2216    1.9181 O   0  0  0  0  0  0  0  0  0  0  0  0
  -17.3329    5.2890   -0.9529 O   0  0  0  0  0  0  0  0  0  0  0  0
  -19.7182    7.3979   -3.7050 O   0  0  0  0  0  0  0  0  0  0  0  0
  -21.3414    9.4166   -1.4153 S   0  0  0  0  0  0  0  0  0  0  0  0
 10  1  1  1
  1 31  1  0
  2 13  2  0
 14  2  1  0
  2 28  1  0
 15  3  2  0
  3 16  1  0
  3 23  1  0
  5  4  1  0
  6  5  2  0
  5 21  1  0
  7  6  1  0
  8  7  2  0
  8 20  1  0
 34  8  1  0
 19  9  1  0
  9 30  1  0
  9 34  1  1
 11 10  1  0
 10 30  1  0
 12 11  1  0
 11 32  1  1
 12 19  1  0
 12 26  1  1
 13 26  1  0
 14 15  1  0
 14 18  2  0
 15 22  1  0
 16 17  2  0
 16 27  1  0
 17 18  1  0
 17 24  1  0
 18 25  1  0
 19 33  1  6
 20 21  2  0
 26 29  1  0
 28 29  2  0
M  END
$$$$
