
     RDKit          3D

 34 37  0  0  0  0  0  0  0  0999 V2000
  -20.7783    4.9428   -0.8202 C   0  0  0  0  0  0  0  0  0  0  0  0
  -14.7091    8.4697   -0.5450 C   0  0  0  0  0  0  0  0  0  0  0  0
  -11.9194   10.7818    0.4137 C   0  0  0  0  0  0  0  0  0  0  0  0
  -26.8298    9.2506   -3.1143 C   0  0  0  0  0  0  0  0  0  0  0  0
  -25.5637    9.3521   -2.3310 C   0  0  0  0  0  0  0  0  0  0  0  0
  -25.4928    9.0568   -0.9949 C   0  0  0  0  0  0  0  0  0  0  0  0
  -24.3017    9.1661   -0.3175 C   0  0  0  0  0  0  0  0  0  0  0  0
  -23.1346    9.5705   -0.9302 C   0  0  0  0  0  0  0  0  0  0  0  0
  -20.4597    8.5095   -0.6929 C   0  0  1  0  0  0  0  0  0  0  0  0
  -20.1743    6.3137   -1.1283 C   0  0  2  0  0  0  0  0  0  0  0  0
  -18.7256    6.3677   -0.6923 C   0  0  1  0  0  0  0  0  0  0  0  0
  -18.1955    7.7371   -1.0240 C   0  0  1  0  0  0  0  0  0  0  0  0
  -15.9354    8.8570   -1.0007 C   0  0  0  0  0  0  0  0  0  0  0  0
  -13.4339    9.1666   -0.5608 C   0  0  0  0  0  0  0  0  0  0  0  0
  -13.1368   10.0924    0.3986 C   0  0  0  0  0  0  0  0  0  0  0  0
  -10.9742   10.5299   -0.5674 C   0  0  0  0  0  0  0  0  0  0  0  0
  -11.2673    9.5988   -1.5363 C   0  0  0  0  0  0  0  0  0  0  0  0
  -12.4831    8.9271   -1.5304 C   0  0  0  0  0  0  0  0  0  0  0  0
  -19.0289    8.7432   -0.2619 C   0  0  1  0  0  0  0  0  0  0  0  0
  -23.2024    9.8676   -2.2712 C   0  0  0  0  0  0  0  0  0  0  0  0
  -24.4052    9.7626   -2.9784 C   0  0  0  0  0  0  0  0  0  0  0  0
  -14.0346   10.3681    1.3766 F   0  0  0  0  0  0  0  0  0  0  0  0
  -11.6205   11.7004    1.3629 F   0  0  0  0  0  0  0  0  0  0  0  0
  -10.3518    9.3498   -2.4929 F   0  0  0  0  0  0  0  0  0  0  0  0
  -12.7214    8.0094   -2.5208 F   0  0  0  0  0  0  0  0  0  0  0  0
  -16.7871    7.8691   -0.7575 N   0  0  0  0  0  0  0  0  0  0  0  0
   -9.7128   11.2215   -0.5803 N   0  0  0  0  0  0  0  0  0  0  0  0
  -14.8537    7.2393   -0.0305 N   0  0  0  0  0  0  0  0  0  0  0  0
  -16.0967    6.8933   -0.1635 N   0  0  0  0  0  0  0  0  0  0  0  0
  -20.8622    7.2319   -0.3226 O   0  0  0  0  0  0  0  0  0  0  0  0
  -22.0038    5.1808   -0.1686 O   0  0  0  0  0  0  0  0  0  0  0  0
  -18.7161    6.2310    0.7072 O   0  0  0  0  0  0  0  0  0  0  0  0
  -18.6697   10.0446   -0.5372 O   0  0  0  0  0  0  0  0  0  0  0  0
  -21.6091    9.7011   -0.0220 S   0  0  0  0  0  0  0  0  0  0  0  0
 10  1  1  0
  1 31  1  6
  2 13  2  0
 14  2  1  0
  2 28  1  0
 15  3  2  0
  3 16  1  0
  3 23  1  0
  4  5  1  6
  6  5  2  0
  5 21  1  0
  7  6  1  0
  8  7  2  0
  8 20  1  0
 34  8  1  0
 19  9  1  0
  9 30  1  0
  9 34  1  1
 11 10  1  0
 10 30  1  1
 12 11  1  0
 11 32  1  1
 12 19  1  0
 12 26  1  1
 13 26  1  0
 14 15  1  0
 14 18  2  0
 15 22  1  0
 16 17  2  0
 16 27  1  0
 17 18  1  0
 17 24  1  0
 18 25  1  0
 19 33  1  6
 20 21  2  0
 26 29  1  0
 28 29  2  0
M  END
$$$$
