
     RDKit          3D

 34 37  0  0  0  0  0  0  0  0999 V2000
  -20.5089    4.8502   -0.5864 C   0  0  0  0  0  0  0  0  0  0  0  0
  -14.4632    8.3957   -0.4322 C   0  0  0  0  0  0  0  0  0  0  0  0
  -11.5763    9.9227    1.4068 C   0  0  0  0  0  0  0  0  0  0  0  0
  -26.3936    9.6714   -3.1495 C   0  0  0  0  0  0  0  0  0  0  0  0
  -25.1438    9.6899   -2.3342 C   0  0  0  0  0  0  0  0  0  0  0  0
  -24.6365   10.8363   -1.7810 C   0  0  0  0  0  0  0  0  0  0  0  0
  -23.4810   10.8010   -1.0374 C   0  0  0  0  0  0  0  0  0  0  0  0
  -22.7806    9.6352   -0.8101 C   0  0  0  0  0  0  0  0  0  0  0  0
  -20.1758    8.4177   -0.5463 C   0  0  1  0  0  0  0  0  0  0  0  0
  -19.9180    6.2128   -0.9519 C   0  0  2  0  0  0  0  0  0  0  0  0
  -18.4490    6.2704   -0.5910 C   0  0  1  0  0  0  0  0  0  0  0  0
  -17.9332    7.6312   -0.9763 C   0  0  1  0  0  0  0  0  0  0  0  0
  -15.7572    8.8206   -0.5148 C   0  0  0  0  0  0  0  0  0  0  0  0
  -13.2428    9.1368   -0.1608 C   0  0  0  0  0  0  0  0  0  0  0  0
  -12.7481    9.2180    1.1098 C   0  0  0  0  0  0  0  0  0  0  0  0
  -10.8837   10.5639    0.3927 C   0  0  0  0  0  0  0  0  0  0  0  0
  -11.3767   10.4858   -0.8889 C   0  0  0  0  0  0  0  0  0  0  0  0
  -12.5422    9.7802   -1.1591 C   0  0  0  0  0  0  0  0  0  0  0  0
  -18.7245    8.6550   -0.1931 C   0  0  1  0  0  0  0  0  0  0  0  0
  -23.2872    8.4829   -1.3640 C   0  0  0  0  0  0  0  0  0  0  0  0
  -24.4620    8.4981   -2.1240 C   0  0  0  0  0  0  0  0  0  0  0  0
  -13.3960    8.6046    2.1308 F   0  0  0  0  0  0  0  0  0  0  0  0
  -11.0821   10.0060    2.6649 F   0  0  0  0  0  0  0  0  0  0  0  0
  -10.7072   11.1075   -1.8791 F   0  0  0  0  0  0  0  0  0  0  0  0
  -12.9874    9.7359   -2.4552 F   0  0  0  0  0  0  0  0  0  0  0  0
  -16.5127    7.7637   -0.7842 N   0  0  0  0  0  0  0  0  0  0  0  0
   -9.6759   11.2967    0.6646 N   0  0  0  0  0  0  0  0  0  0  0  0
  -14.4706    7.0733   -0.6573 N   0  0  0  0  0  0  0  0  0  0  0  0
  -15.6981    6.7096   -0.8656 N   0  0  0  0  0  0  0  0  0  0  0  0
  -20.5621    7.1490   -0.1308 O   0  0  0  0  0  0  0  0  0  0  0  0
  -21.9088    4.9886   -0.6520 O   0  0  0  0  0  0  0  0  0  0  0  0
  -18.3688    6.1614    0.8086 O   0  0  0  0  0  0  0  0  0  0  0  0
  -18.3766    9.9495   -0.5121 O   0  0  0  0  0  0  0  0  0  0  0  0
  -21.2869    9.6261    0.1582 S   0  0  0  0  0  0  0  0  0  0  0  0
 10  1  1  0
  1 31  1  6
  2 13  2  0
 14  2  1  0
  2 28  1  0
 15  3  2  0
  3 16  1  0
  3 23  1  0
  4  5  1  6
  6  5  2  0
  5 21  1  0
  7  6  1  0
  8  7  2  0
  8 20  1  0
 34  8  1  0
 19  9  1  0
  9 30  1  0
  9 34  1  1
 11 10  1  0
 10 30  1  1
 12 11  1  0
 11 32  1  1
 12 19  1  0
 12 26  1  1
 13 26  1  0
 14 15  1  0
 14 18  2  0
 15 22  1  0
 16 17  2  0
 16 27  1  0
 17 18  1  0
 17 24  1  0
 18 25  1  0
 19 33  1  6
 20 21  2  0
 26 29  1  0
 28 29  2  0
M  END
$$$$
