
     RDKit          3D

 34 37  0  0  0  0  0  0  0  0999 V2000
  -18.0868   10.2198   -3.7210 C   0  0  0  0  0  0  0  0  0  0  0  0
  -14.5491    8.8967   -0.3558 C   0  0  0  0  0  0  0  0  0  0  0  0
  -10.8652    9.6174   -0.5958 C   0  0  0  0  0  0  0  0  0  0  0  0
  -25.7817    5.0125   -0.7909 C   0  0  0  0  0  0  0  0  0  0  0  0
  -24.3223    5.2421   -0.9764 C   0  0  0  0  0  0  0  0  0  0  0  0
  -23.3875    4.4680   -0.3531 C   0  0  0  0  0  0  0  0  0  0  0  0
  -22.0277    4.7257   -0.5618 C   0  0  0  0  0  0  0  0  0  0  0  0
  -21.6229    5.7455   -1.3841 C   0  0  0  0  0  0  0  0  0  0  0  0
  -19.4930    7.8115   -1.4555 C   0  0  1  0  0  0  0  0  0  0  0  0
  -18.8766    9.6201   -2.5924 C   0  0  2  0  0  0  0  0  0  0  0  0
  -18.6782   10.2848   -1.2696 C   0  0  1  0  0  0  0  0  0  0  0  0
  -18.1439    9.3930   -0.1880 C   0  0  1  0  0  0  0  0  0  0  0  0
  -15.6908    9.4771    0.1948 C   0  0  0  0  0  0  0  0  0  0  0  0
  -13.1549    9.1112    0.0615 C   0  0  0  0  0  0  0  0  0  0  0  0
  -12.1950    9.3998   -0.8855 C   0  0  0  0  0  0  0  0  0  0  0  0
  -10.4998    9.5330    0.7506 C   0  0  0  0  0  0  0  0  0  0  0  0
  -11.4413    9.2456    1.7167 C   0  0  0  0  0  0  0  0  0  0  0  0
  -12.7648    9.0365    1.3632 C   0  0  0  0  0  0  0  0  0  0  0  0
  -19.0524    8.1882   -0.0777 C   0  0  1  0  0  0  0  0  0  0  0  0
  -22.5496    6.5322   -2.0175 C   0  0  0  0  0  0  0  0  0  0  0  0
  -23.9011    6.2683   -1.8038 C   0  0  0  0  0  0  0  0  0  0  0  0
  -12.5715    9.4770   -2.1837 F   0  0  0  0  0  0  0  0  0  0  0  0
   -9.9390    9.9012   -1.5610 F   0  0  0  0  0  0  0  0  0  0  0  0
  -11.0302    9.1763    3.0131 F   0  0  0  0  0  0  0  0  0  0  0  0
  -13.6910    8.7550    2.3087 F   0  0  0  0  0  0  0  0  0  0  0  0
  -16.7699    9.0236   -0.4653 N   0  0  0  0  0  0  0  0  0  0  0  0
   -9.1316    9.7576    1.0470 N   0  0  0  0  0  0  0  0  0  0  0  0
  -15.0064    8.1073   -1.3393 N   0  0  0  0  0  0  0  0  0  0  0  0
  -16.3393    8.2057   -1.3789 N   0  0  0  0  0  0  0  0  0  0  0  0
  -18.6165    8.2494   -2.4450 O   0  0  0  0  0  0  0  0  0  0  0  0
  -18.7198   11.2476   -4.3759 O   0  0  0  0  0  0  0  0  0  0  0  0
  -17.9241   11.4705   -1.3819 O   0  0  0  0  0  0  0  0  0  0  0  0
  -20.1318    8.5716    0.7236 O   0  0  0  0  0  0  0  0  0  0  0  0
  -19.8985    6.0522   -1.6324 S   0  0  0  0  0  0  0  0  0  0  0  0
 10  1  1  6
  1 31  1  0
  2 13  2  0
 14  2  1  0
  2 28  1  0
 15  3  2  0
  3 16  1  0
  3 23  1  0
  5  4  1  0
  6  5  2  0
  5 21  1  0
  7  6  1  0
  8  7  2  0
  8 20  1  0
 34  8  1  0
 19  9  1  0
  9 30  1  0
  9 34  1  1
 11 10  1  0
 10 30  1  0
 12 11  1  0
 11 32  1  6
 12 19  1  0
 12 26  1  6
 13 26  1  0
 14 15  1  0
 14 18  2  0
 15 22  1  0
 16 17  2  0
 16 27  1  0
 17 18  1  0
 17 24  1  0
 18 25  1  0
 19 33  1  1
 20 21  2  0
 26 29  1  0
 28 29  2  0
M  END
$$$$
