
     RDKit          3D

 34 37  0  0  0  0  0  0  0  0999 V2000
  -18.6342    5.6083    1.2331 C   0  0  0  0  0  0  0  0  0  0  0  0
  -15.0100    8.8122   -0.0683 C   0  0  0  0  0  0  0  0  0  0  0  0
  -11.4941    9.9829   -0.7134 C   0  0  0  0  0  0  0  0  0  0  0  0
  -26.8179    8.2114   -2.4145 C   0  0  0  0  0  0  0  0  0  0  0  0
  -25.4318    8.5279   -1.9725 C   0  0  0  0  0  0  0  0  0  0  0  0
  -25.1706    9.0397   -0.7351 C   0  0  0  0  0  0  0  0  0  0  0  0
  -23.8490    9.3193   -0.3688 C   0  0  0  0  0  0  0  0  0  0  0  0
  -22.8137    9.0857   -1.2369 C   0  0  0  0  0  0  0  0  0  0  0  0
  -20.0485    8.0308   -1.0120 C   0  0  1  0  0  0  0  0  0  0  0  0
  -19.1774    6.2448   -0.0147 C   0  0  2  0  0  0  0  0  0  0  0  0
  -18.3087    6.0956   -1.2204 C   0  0  1  0  0  0  0  0  0  0  0  0
  -17.8483    7.3861   -1.8313 C   0  0  1  0  0  0  0  0  0  0  0  0
  -15.5723    8.0621   -1.1002 C   0  0  0  0  0  0  0  0  0  0  0  0
  -13.5814    9.0799    0.1579 C   0  0  0  0  0  0  0  0  0  0  0  0
  -12.8359    9.6896   -0.8290 C   0  0  0  0  0  0  0  0  0  0  0  0
  -10.8811    9.6275    0.4913 C   0  0  0  0  0  0  0  0  0  0  0  0
  -11.6051    9.0167    1.4938 C   0  0  0  0  0  0  0  0  0  0  0  0
  -12.9530    8.7472    1.3184 C   0  0  0  0  0  0  0  0  0  0  0  0
  -19.0681    8.2325   -2.1223 C   0  0  1  0  0  0  0  0  0  0  0  0
  -23.0596    8.5718   -2.4837 C   0  0  0  0  0  0  0  0  0  0  0  0
  -24.3784    8.2965   -2.8397 C   0  0  0  0  0  0  0  0  0  0  0  0
  -13.4504   10.0254   -1.9878 F   0  0  0  0  0  0  0  0  0  0  0  0
  -10.7847   10.5883   -1.7135 F   0  0  0  0  0  0  0  0  0  0  0  0
  -10.9576    8.6928    2.6471 F   0  0  0  0  0  0  0  0  0  0  0  0
  -13.6663    8.1487    2.3003 F   0  0  0  0  0  0  0  0  0  0  0  0
  -16.9083    8.0572   -0.9552 N   0  0  0  0  0  0  0  0  0  0  0  0
   -9.5010    9.9303    0.6088 N   0  0  0  0  0  0  0  0  0  0  0  0
  -16.0558    9.2296    0.6609 N   0  0  0  0  0  0  0  0  0  0  0  0
  -17.1772    8.7607    0.1039 N   0  0  0  0  0  0  0  0  0  0  0  0
  -19.4494    7.6085    0.1718 O   0  0  0  0  0  0  0  0  0  0  0  0
  -19.3910    4.5704    1.7188 O   0  0  0  0  0  0  0  0  0  0  0  0
  -17.2293    5.2190   -0.9887 O   0  0  0  0  0  0  0  0  0  0  0  0
  -19.5777    7.7939   -3.3480 O   0  0  0  0  0  0  0  0  0  0  0  0
  -21.1516    9.4472   -0.7515 S   0  0  0  0  0  0  0  0  0  0  0  0
 10  1  1  1
  1 31  1  0
  2 13  2  0
 14  2  1  0
  2 28  1  0
 15  3  2  0
  3 16  1  0
  3 23  1  0
  5  4  1  0
  6  5  2  0
  5 21  1  0
  7  6  1  0
  8  7  2  0
  8 20  1  0
 34  8  1  0
 19  9  1  0
  9 30  1  0
  9 34  1  1
 11 10  1  0
 10 30  1  0
 12 11  1  0
 11 32  1  1
 12 19  1  0
 12 26  1  1
 13 26  1  0
 14 15  1  0
 14 18  2  0
 15 22  1  0
 16 17  2  0
 16 27  1  0
 17 18  1  0
 17 24  1  0
 18 25  1  0
 19 33  1  6
 20 21  2  0
 26 29  1  0
 28 29  2  0
M  END
$$$$
