
     RDKit          3D

 34 37  0  0  0  0  0  0  0  0999 V2000
  -20.6032    5.3837   -0.4451 C   0  0  0  0  0  0  0  0  0  0  0  0
  -14.7813    9.0250   -0.9222 C   0  0  0  0  0  0  0  0  0  0  0  0
  -11.7351   11.1169   -0.2959 C   0  0  0  0  0  0  0  0  0  0  0  0
  -27.1808    9.5802   -1.6517 C   0  0  0  0  0  0  0  0  0  0  0  0
  -25.7839    9.7236   -1.1468 C   0  0  0  0  0  0  0  0  0  0  0  0
  -24.8163   10.4139   -1.8286 C   0  0  0  0  0  0  0  0  0  0  0  0
  -23.5431   10.5174   -1.3209 C   0  0  0  0  0  0  0  0  0  0  0  0
  -23.1739    9.9449   -0.1221 C   0  0  0  0  0  0  0  0  0  0  0  0
  -20.4722    8.9642   -0.3973 C   0  0  1  0  0  0  0  0  0  0  0  0
  -20.1613    6.7818   -0.8801 C   0  0  2  0  0  0  0  0  0  0  0  0
  -18.6581    6.9235   -0.7705 C   0  0  1  0  0  0  0  0  0  0  0  0
  -18.2933    8.3156   -1.2125 C   0  0  1  0  0  0  0  0  0  0  0  0
  -16.0318    9.0577   -0.3773 C   0  0  0  0  0  0  0  0  0  0  0  0
  -13.5069    9.4722   -0.3857 C   0  0  0  0  0  0  0  0  0  0  0  0
  -12.9597   10.6561   -0.7916 C   0  0  0  0  0  0  0  0  0  0  0  0
  -11.0424   10.3615    0.6362 C   0  0  0  0  0  0  0  0  0  0  0  0
  -11.5880    9.1684    1.0490 C   0  0  0  0  0  0  0  0  0  0  0  0
  -12.8055    8.7318    0.5425 C   0  0  0  0  0  0  0  0  0  0  0  0
  -18.9979    9.2842   -0.2891 C   0  0  1  0  0  0  0  0  0  0  0  0
  -24.1427    9.2513    0.5646 C   0  0  0  0  0  0  0  0  0  0  0  0
  -25.4444    9.1346    0.0646 C   0  0  0  0  0  0  0  0  0  0  0  0
  -13.6058   11.4253   -1.7024 F   0  0  0  0  0  0  0  0  0  0  0  0
  -11.1889   12.2900   -0.6955 F   0  0  0  0  0  0  0  0  0  0  0  0
  -10.9187    8.4297    1.9554 F   0  0  0  0  0  0  0  0  0  0  0  0
  -13.3018    7.5346    0.9898 F   0  0  0  0  0  0  0  0  0  0  0  0
  -16.8707    8.5305   -1.2597 N   0  0  0  0  0  0  0  0  0  0  0  0
   -9.7810   10.8070    1.1655 N   0  0  0  0  0  0  0  0  0  0  0  0
  -14.8988    8.4706   -2.1380 N   0  0  0  0  0  0  0  0  0  0  0  0
  -16.1490    8.1805   -2.3266 N   0  0  0  0  0  0  0  0  0  0  0  0
  -20.7096    7.6715    0.0543 O   0  0  0  0  0  0  0  0  0  0  0  0
  -21.9157    5.2097   -0.9249 O   0  0  0  0  0  0  0  0  0  0  0  0
  -18.3364    6.8081    0.5935 O   0  0  0  0  0  0  0  0  0  0  0  0
  -18.7834   10.5997   -0.6386 O   0  0  0  0  0  0  0  0  0  0  0  0
  -21.5153   10.0989    0.5057 S   0  0  0  0  0  0  0  0  0  0  0  0
 10  1  1  0
  1 31  1  6
  2 13  2  0
 14  2  1  0
  2 28  1  0
 15  3  2  0
  3 16  1  0
  3 23  1  0
  4  5  1  6
  6  5  2  0
  5 21  1  0
  7  6  1  0
  8  7  2  0
  8 20  1  0
 34  8  1  0
 19  9  1  0
  9 30  1  0
  9 34  1  1
 11 10  1  0
 10 30  1  1
 12 11  1  0
 11 32  1  1
 12 19  1  0
 12 26  1  1
 13 26  1  0
 14 15  1  0
 14 18  2  0
 15 22  1  0
 16 17  2  0
 16 27  1  0
 17 18  1  0
 17 24  1  0
 18 25  1  0
 19 33  1  6
 20 21  2  0
 26 29  1  0
 28 29  2  0
M  END
$$$$
