
     RDKit          3D

 34 37  0  0  0  0  0  0  0  0999 V2000
  -20.5326    5.0262   -0.2100 C   0  0  0  0  0  0  0  0  0  0  0  0
  -14.7114    8.6554   -0.8347 C   0  0  0  0  0  0  0  0  0  0  0  0
  -11.1451    8.7488    0.3145 C   0  0  0  0  0  0  0  0  0  0  0  0
  -27.0050    9.4589   -2.0046 C   0  0  0  0  0  0  0  0  0  0  0  0
  -25.6479    9.5686   -1.3938 C   0  0  0  0  0  0  0  0  0  0  0  0
  -25.1124   10.7623   -0.9867 C   0  0  0  0  0  0  0  0  0  0  0  0
  -23.8568   10.8108   -0.4293 C   0  0  0  0  0  0  0  0  0  0  0  0
  -23.0804    9.6853   -0.2515 C   0  0  0  0  0  0  0  0  0  0  0  0
  -20.4051    8.6041   -0.3559 C   0  0  1  0  0  0  0  0  0  0  0  0
  -20.0877    6.3992   -0.7162 C   0  0  2  0  0  0  0  0  0  0  0  0
  -18.5858    6.5487   -0.6001 C   0  0  1  0  0  0  0  0  0  0  0  0
  -18.2179    7.9151   -1.1137 C   0  0  1  0  0  0  0  0  0  0  0  0
  -15.9694    8.7297   -0.3116 C   0  0  0  0  0  0  0  0  0  0  0  0
  -13.4452    9.1487   -0.3195 C   0  0  0  0  0  0  0  0  0  0  0  0
  -12.3782    8.3077   -0.1781 C   0  0  0  0  0  0  0  0  0  0  0  0
  -10.9837   10.0767    0.6749 C   0  0  0  0  0  0  0  0  0  0  0  0
  -12.0544   10.9287    0.5350 C   0  0  0  0  0  0  0  0  0  0  0  0
  -13.2689   10.4673    0.0435 C   0  0  0  0  0  0  0  0  0  0  0  0
  -18.9322    8.9316   -0.2511 C   0  0  1  0  0  0  0  0  0  0  0  0
  -23.6150    8.4856   -0.6592 C   0  0  0  0  0  0  0  0  0  0  0  0
  -24.8912    8.4154   -1.2287 C   0  0  0  0  0  0  0  0  0  0  0  0
  -12.4946    7.0006   -0.5195 F   0  0  0  0  0  0  0  0  0  0  0  0
  -10.0845    7.9186    0.4563 F   0  0  0  0  0  0  0  0  0  0  0  0
  -11.9031   12.2211    0.8840 F   0  0  0  0  0  0  0  0  0  0  0  0
  -14.3019   11.3611   -0.0747 F   0  0  0  0  0  0  0  0  0  0  0  0
  -16.7951    8.1291   -1.1589 N   0  0  0  0  0  0  0  0  0  0  0  0
   -9.7290   10.5620    1.1846 N   0  0  0  0  0  0  0  0  0  0  0  0
  -14.8111    8.0019   -2.0020 N   0  0  0  0  0  0  0  0  0  0  0  0
  -16.0581    7.6940   -2.1831 N   0  0  0  0  0  0  0  0  0  0  0  0
  -20.6458    7.3376    0.1631 O   0  0  0  0  0  0  0  0  0  0  0  0
  -20.3464    4.1251   -1.2762 O   0  0  0  0  0  0  0  0  0  0  0  0
  -18.2771    6.5080    0.7712 O   0  0  0  0  0  0  0  0  0  0  0  0
  -18.7155   10.2264   -0.6697 O   0  0  0  0  0  0  0  0  0  0  0  0
  -21.4579    9.7848    0.4740 S   0  0  0  0  0  0  0  0  0  0  0  0
 10  1  1  0
  1 31  1  6
  2 13  2  0
 14  2  1  0
  2 28  1  0
 15  3  2  0
  3 16  1  0
  3 23  1  0
  4  5  1  6
  6  5  2  0
  5 21  1  0
  7  6  1  0
  8  7  2  0
  8 20  1  0
 34  8  1  0
 19  9  1  0
  9 30  1  0
  9 34  1  1
 11 10  1  0
 10 30  1  1
 12 11  1  0
 11 32  1  1
 12 19  1  0
 12 26  1  1
 13 26  1  0
 14 15  1  0
 14 18  2  0
 15 22  1  0
 16 17  2  0
 16 27  1  0
 17 18  1  0
 17 24  1  0
 18 25  1  0
 19 33  1  6
 20 21  2  0
 26 29  1  0
 28 29  2  0
M  END
$$$$
