
     RDKit          3D

 34 37  0  0  0  0  0  0  0  0999 V2000
  -21.3459   11.2175   -1.0758 C   0  0  0  0  0  0  0  0  0  0  0  0
  -14.6164    9.4918   -0.0293 C   0  0  0  0  0  0  0  0  0  0  0  0
  -11.1441    8.1417   -0.4397 C   0  0  0  0  0  0  0  0  0  0  0  0
  -24.9864    3.5755   -0.0484 C   0  0  0  0  0  0  0  0  0  0  0  0
  -23.8991    4.3470   -0.7189 C   0  0  0  0  0  0  0  0  0  0  0  0
  -24.1101    5.1009   -1.8434 C   0  0  0  0  0  0  0  0  0  0  0  0
  -23.0748    5.7940   -2.4242 C   0  0  0  0  0  0  0  0  0  0  0  0
  -21.7918    5.7711   -1.9196 C   0  0  0  0  0  0  0  0  0  0  0  0
  -19.9402    7.9587   -1.5691 C   0  0  1  0  0  0  0  0  0  0  0  0
  -20.4489   10.0131   -0.7860 C   0  0  2  0  0  0  0  0  0  0  0  0
  -18.9917   10.4231   -0.7807 C   0  0  1  0  0  0  0  0  0  0  0  0
  -18.1691    9.1963   -0.4900 C   0  0  1  0  0  0  0  0  0  0  0  0
  -15.7374    8.7139   -0.0246 C   0  0  0  0  0  0  0  0  0  0  0  0
  -13.2314    9.1517    0.2501 C   0  0  0  0  0  0  0  0  0  0  0  0
  -12.4799    8.4849   -0.6754 C   0  0  0  0  0  0  0  0  0  0  0  0
  -10.5491    8.4810    0.7645 C   0  0  0  0  0  0  0  0  0  0  0  0
  -11.3004    9.1524    1.7007 C   0  0  0  0  0  0  0  0  0  0  0  0
  -12.6250    9.4823    1.4436 C   0  0  0  0  0  0  0  0  0  0  0  0
  -18.4462    8.1935   -1.5878 C   0  0  1  0  0  0  0  0  0  0  0  0
  -21.5768    5.0153   -0.7910 C   0  0  0  0  0  0  0  0  0  0  0  0
  -22.6175    4.3027   -0.1851 C   0  0  0  0  0  0  0  0  0  0  0  0
  -13.0247    8.1346   -1.8667 F   0  0  0  0  0  0  0  0  0  0  0  0
  -10.3954    7.4807   -1.3544 F   0  0  0  0  0  0  0  0  0  0  0  0
  -10.7269    9.4849    2.8736 F   0  0  0  0  0  0  0  0  0  0  0  0
  -13.3261   10.1519    2.4132 F   0  0  0  0  0  0  0  0  0  0  0  0
  -16.7666    9.4870   -0.3463 N   0  0  0  0  0  0  0  0  0  0  0  0
   -9.1778    8.1428    1.0381 N   0  0  0  0  0  0  0  0  0  0  0  0
  -15.0032   10.7333   -0.3587 N   0  0  0  0  0  0  0  0  0  0  0  0
  -16.2868   10.7166   -0.5449 N   0  0  0  0  0  0  0  0  0  0  0  0
  -20.6081    9.1395   -1.8709 O   0  0  0  0  0  0  0  0  0  0  0  0
  -22.6428   10.8627   -0.6569 O   0  0  0  0  0  0  0  0  0  0  0  0
  -18.6833   10.8476   -2.0854 O   0  0  0  0  0  0  0  0  0  0  0  0
  -17.7878    6.9991   -1.3918 O   0  0  0  0  0  0  0  0  0  0  0  0
  -20.4744    6.6811   -2.6976 S   0  0  0  0  0  0  0  0  0  0  0  0
 10  1  1  0
  1 31  1  6
  2 13  2  0
 14  2  1  0
  2 28  1  0
 15  3  2  0
  3 16  1  0
  3 23  1  0
  4  5  1  6
  6  5  2  0
  5 21  1  0
  7  6  1  0
  8  7  2  0
  8 20  1  0
 34  8  1  0
 19  9  1  0
  9 30  1  0
  9 34  1  6
 11 10  1  0
 10 30  1  6
 12 11  1  0
 11 32  1  6
 12 19  1  0
 12 26  1  6
 13 26  1  0
 14 15  1  0
 14 18  2  0
 15 22  1  0
 16 17  2  0
 16 27  1  0
 17 18  1  0
 17 24  1  0
 18 25  1  0
 19 33  1  1
 20 21  2  0
 26 29  1  0
 28 29  2  0
M  END
$$$$
