
     RDKit          3D

 34 37  0  0  0  0  0  0  0  0999 V2000
  -20.4792    4.9694   -0.2240 C   0  0  0  0  0  0  0  0  0  0  0  0
  -14.7876    8.6101   -0.8934 C   0  0  0  0  0  0  0  0  0  0  0  0
  -12.0240   10.1091    1.1470 C   0  0  0  0  0  0  0  0  0  0  0  0
  -27.1518    9.0089   -2.1797 C   0  0  0  0  0  0  0  0  0  0  0  0
  -25.8105    9.1687   -1.5456 C   0  0  0  0  0  0  0  0  0  0  0  0
  -25.5796    8.9008   -0.2218 C   0  0  0  0  0  0  0  0  0  0  0  0
  -24.3250    9.0639    0.3155 C   0  0  0  0  0  0  0  0  0  0  0  0
  -23.2493    9.4972   -0.4305 C   0  0  0  0  0  0  0  0  0  0  0  0
  -20.5250    8.5424   -0.4888 C   0  0  1  0  0  0  0  0  0  0  0  0
  -20.0993    6.3448   -0.7745 C   0  0  2  0  0  0  0  0  0  0  0  0
  -18.6070    6.5710   -0.6592 C   0  0  1  0  0  0  0  0  0  0  0  0
  -18.3036    7.9360   -1.2170 C   0  0  1  0  0  0  0  0  0  0  0  0
  -15.9871    8.3374   -0.3030 C   0  0  0  0  0  0  0  0  0  0  0  0
  -13.4768    8.8329   -0.3067 C   0  0  0  0  0  0  0  0  0  0  0  0
  -13.2723    9.8656    0.5638 C   0  0  0  0  0  0  0  0  0  0  0  0
  -10.9510    9.2871    0.8433 C   0  0  0  0  0  0  0  0  0  0  0  0
  -11.1503    8.2456   -0.0326 C   0  0  0  0  0  0  0  0  0  0  0  0
  -12.3991    8.0238   -0.5989 C   0  0  0  0  0  0  0  0  0  0  0  0
  -19.0703    8.9445   -0.3909 C   0  0  1  0  0  0  0  0  0  0  0  0
  -23.4778    9.7670   -1.7595 C   0  0  0  0  0  0  0  0  0  0  0  0
  -24.7476    9.6072   -2.3251 C   0  0  0  0  0  0  0  0  0  0  0  0
  -14.2965   10.6932    0.8873 F   0  0  0  0  0  0  0  0  0  0  0  0
  -11.8167   11.1316    2.0105 F   0  0  0  0  0  0  0  0  0  0  0  0
  -10.1103    7.4430   -0.3315 F   0  0  0  0  0  0  0  0  0  0  0  0
  -12.5400    6.9706   -1.4654 F   0  0  0  0  0  0  0  0  0  0  0  0
  -16.8927    8.2173   -1.2653 N   0  0  0  0  0  0  0  0  0  0  0  0
   -9.6546    9.5104    1.4258 N   0  0  0  0  0  0  0  0  0  0  0  0
  -15.0027    8.6483   -2.2169 N   0  0  0  0  0  0  0  0  0  0  0  0
  -16.2613    8.4126   -2.4249 N   0  0  0  0  0  0  0  0  0  0  0  0
  -20.7062    7.2836    0.0715 O   0  0  0  0  0  0  0  0  0  0  0  0
  -21.7980    4.7169   -0.6486 O   0  0  0  0  0  0  0  0  0  0  0  0
  -18.3028    6.5910    0.7136 O   0  0  0  0  0  0  0  0  0  0  0  0
  -18.9148   10.2337   -0.8518 O   0  0  0  0  0  0  0  0  0  0  0  0
  -21.6376    9.6974    0.2982 S   0  0  0  0  0  0  0  0  0  0  0  0
 10  1  1  0
  1 31  1  6
  2 13  2  0
 14  2  1  0
  2 28  1  0
 15  3  2  0
  3 16  1  0
  3 23  1  0
  4  5  1  6
  6  5  2  0
  5 21  1  0
  7  6  1  0
  8  7  2  0
  8 20  1  0
 34  8  1  0
 19  9  1  0
  9 30  1  0
  9 34  1  1
 11 10  1  0
 10 30  1  1
 12 11  1  0
 11 32  1  1
 12 19  1  0
 12 26  1  1
 13 26  1  0
 14 15  1  0
 14 18  2  0
 15 22  1  0
 16 17  2  0
 16 27  1  0
 17 18  1  0
 17 24  1  0
 18 25  1  0
 19 33  1  6
 20 21  2  0
 26 29  1  0
 28 29  2  0
M  END
$$$$
