
     RDKit          3D

 34 37  0  0  0  0  0  0  0  0999 V2000
  -20.7136    5.1921    0.2848 C   0  0  0  0  0  0  0  0  0  0  0  0
  -14.4748    8.1011   -0.5619 C   0  0  0  0  0  0  0  0  0  0  0  0
  -11.1088    9.7350   -0.7804 C   0  0  0  0  0  0  0  0  0  0  0  0
  -26.8017    8.8237   -2.4944 C   0  0  0  0  0  0  0  0  0  0  0  0
  -25.4116    9.1250   -2.0430 C   0  0  0  0  0  0  0  0  0  0  0  0
  -24.5090    9.7997   -2.8224 C   0  0  0  0  0  0  0  0  0  0  0  0
  -23.2392   10.0529   -2.3607 C   0  0  0  0  0  0  0  0  0  0  0  0
  -22.8097    9.6512   -1.1135 C   0  0  0  0  0  0  0  0  0  0  0  0
  -20.1555    8.5470   -0.8430 C   0  0  1  0  0  0  0  0  0  0  0  0
  -20.0543    6.3166   -0.5152 C   0  0  2  0  0  0  0  0  0  0  0  0
  -18.5705    6.3799   -0.2217 C   0  0  1  0  0  0  0  0  0  0  0  0
  -17.9870    7.5019   -1.0384 C   0  0  1  0  0  0  0  0  0  0  0  0
  -15.7654    8.5162   -0.4071 C   0  0  0  0  0  0  0  0  0  0  0  0
  -13.2270    8.7365   -0.1732 C   0  0  0  0  0  0  0  0  0  0  0  0
  -12.3195    9.1209   -1.1191 C   0  0  0  0  0  0  0  0  0  0  0  0
  -10.8046    9.9680    0.5509 C   0  0  0  0  0  0  0  0  0  0  0  0
  -11.7142    9.5833    1.5082 C   0  0  0  0  0  0  0  0  0  0  0  0
  -12.9098    8.9753    1.1474 C   0  0  0  0  0  0  0  0  0  0  0  0
  -18.6784    8.7787   -0.6149 C   0  0  1  0  0  0  0  0  0  0  0  0
  -23.7133    8.9737   -0.3289 C   0  0  0  0  0  0  0  0  0  0  0  0
  -25.0104    8.7063   -0.7807 C   0  0  0  0  0  0  0  0  0  0  0  0
  -12.5790    8.9108   -2.4332 F   0  0  0  0  0  0  0  0  0  0  0  0
  -10.2062   10.1177   -1.7148 F   0  0  0  0  0  0  0  0  0  0  0  0
  -11.4236    9.8075    2.8045 F   0  0  0  0  0  0  0  0  0  0  0  0
  -13.7791    8.6128    2.1437 F   0  0  0  0  0  0  0  0  0  0  0  0
  -16.5542    7.5849   -0.9278 N   0  0  0  0  0  0  0  0  0  0  0  0
   -9.5684   10.5973    0.9325 N   0  0  0  0  0  0  0  0  0  0  0  0
  -14.5179    6.9121   -1.1814 N   0  0  0  0  0  0  0  0  0  0  0  0
  -15.7629    6.6162   -1.3936 N   0  0  0  0  0  0  0  0  0  0  0  0
  -20.6028    7.5122   -0.0303 O   0  0  0  0  0  0  0  0  0  0  0  0
  -21.6680    4.6005   -0.5651 O   0  0  0  0  0  0  0  0  0  0  0  0
  -18.4380    6.7229    1.1355 O   0  0  0  0  0  0  0  0  0  0  0  0
  -18.2637    9.8719   -1.3440 O   0  0  0  0  0  0  0  0  0  0  0  0
  -21.1575    9.9961   -0.5477 S   0  0  0  0  0  0  0  0  0  0  0  0
 10  1  1  0
  1 31  1  6
  2 13  2  0
 14  2  1  0
  2 28  1  0
 15  3  2  0
  3 16  1  0
  3 23  1  0
  4  5  1  6
  6  5  2  0
  5 21  1  0
  7  6  1  0
  8  7  2  0
  8 20  1  0
 34  8  1  0
 19  9  1  0
  9 30  1  0
  9 34  1  1
 11 10  1  0
 10 30  1  1
 12 11  1  0
 11 32  1  1
 12 19  1  0
 12 26  1  1
 13 26  1  0
 14 15  1  0
 14 18  2  0
 15 22  1  0
 16 17  2  0
 16 27  1  0
 17 18  1  0
 17 24  1  0
 18 25  1  0
 19 33  1  6
 20 21  2  0
 26 29  1  0
 28 29  2  0
M  END
$$$$
