
     RDKit          3D

 34 37  0  0  0  0  0  0  0  0999 V2000
  -20.0032    5.2611    0.3945 C   0  0  0  0  0  0  0  0  0  0  0  0
  -14.6576    9.2992   -0.3021 C   0  0  0  0  0  0  0  0  0  0  0  0
  -11.3307    9.0935    1.4116 C   0  0  0  0  0  0  0  0  0  0  0  0
  -26.1986    6.7185   -4.3503 C   0  0  0  0  0  0  0  0  0  0  0  0
  -25.1581    7.3983   -3.5245 C   0  0  0  0  0  0  0  0  0  0  0  0
  -25.1847    7.4022   -2.1546 C   0  0  0  0  0  0  0  0  0  0  0  0
  -24.2019    8.0433   -1.4387 C   0  0  0  0  0  0  0  0  0  0  0  0
  -23.1550    8.7052   -2.0446 C   0  0  0  0  0  0  0  0  0  0  0  0
  -20.4396    8.4949   -1.0856 C   0  0  1  0  0  0  0  0  0  0  0  0
  -19.6488    6.4739   -0.4672 C   0  0  2  0  0  0  0  0  0  0  0  0
  -18.3297    7.0726   -0.0276 C   0  0  1  0  0  0  0  0  0  0  0  0
  -18.0426    8.2553   -0.9136 C   0  0  1  0  0  0  0  0  0  0  0  0
  -15.5491    8.2926   -0.5343 C   0  0  0  0  0  0  0  0  0  0  0  0
  -13.2206    9.2557   -0.0899 C   0  0  0  0  0  0  0  0  0  0  0  0
  -12.7083    9.1383    1.1709 C   0  0  0  0  0  0  0  0  0  0  0  0
  -10.4442    9.1692    0.3496 C   0  0  0  0  0  0  0  0  0  0  0  0
  -10.9538    9.2876   -0.9225 C   0  0  0  0  0  0  0  0  0  0  0  0
  -12.3256    9.3300   -1.1363 C   0  0  0  0  0  0  0  0  0  0  0  0
  -19.1735    9.2431   -0.7325 C   0  0  1  0  0  0  0  0  0  0  0  0
  -23.1254    8.7031   -3.4195 C   0  0  0  0  0  0  0  0  0  0  0  0
  -24.1164    8.0563   -4.1662 C   0  0  0  0  0  0  0  0  0  0  0  0
  -13.5419    9.0612    2.2376 F   0  0  0  0  0  0  0  0  0  0  0  0
  -10.8183    8.9771    2.6598 F   0  0  0  0  0  0  0  0  0  0  0  0
  -10.0963    9.3617   -1.9590 F   0  0  0  0  0  0  0  0  0  0  0  0
  -12.7773    9.4488   -2.4254 F   0  0  0  0  0  0  0  0  0  0  0  0
  -16.7512    8.8395   -0.6622 N   0  0  0  0  0  0  0  0  0  0  0  0
   -9.0222    9.1260    0.5630 N   0  0  0  0  0  0  0  0  0  0  0  0
  -15.3547   10.4452   -0.2956 N   0  0  0  0  0  0  0  0  0  0  0  0
  -16.6009   10.1571   -0.5114 N   0  0  0  0  0  0  0  0  0  0  0  0
  -20.6283    7.4406   -0.2001 O   0  0  0  0  0  0  0  0  0  0  0  0
  -20.7992    4.4186   -0.4053 O   0  0  0  0  0  0  0  0  0  0  0  0
  -18.5160    7.5518    1.2812 O   0  0  0  0  0  0  0  0  0  0  0  0
  -19.0467   10.3476   -1.5466 O   0  0  0  0  0  0  0  0  0  0  0  0
  -21.8990    9.5252   -1.0860 S   0  0  0  0  0  0  0  0  0  0  0  0
 10  1  1  0
  1 31  1  6
  2 13  2  0
 14  2  1  0
  2 28  1  0
 15  3  2  0
  3 16  1  0
  3 23  1  0
  4  5  1  6
  6  5  2  0
  5 21  1  0
  7  6  1  0
  8  7  2  0
  8 20  1  0
 34  8  1  0
 19  9  1  0
  9 30  1  0
  9 34  1  1
 11 10  1  0
 10 30  1  1
 12 11  1  0
 11 32  1  1
 12 19  1  0
 12 26  1  1
 13 26  1  0
 14 15  1  0
 14 18  2  0
 15 22  1  0
 16 17  2  0
 16 27  1  0
 17 18  1  0
 17 24  1  0
 18 25  1  0
 19 33  1  6
 20 21  2  0
 26 29  1  0
 28 29  2  0
M  END
$$$$
