
     RDKit          3D

 34 37  0  0  0  0  0  0  0  0999 V2000
  -19.1688    5.3054    0.5431 C   0  0  0  0  0  0  0  0  0  0  0  0
  -15.1189    8.4638   -0.0901 C   0  0  0  0  0  0  0  0  0  0  0  0
  -12.0693   10.4901    0.7718 C   0  0  0  0  0  0  0  0  0  0  0  0
  -27.0336    9.4791   -0.8644 C   0  0  0  0  0  0  0  0  0  0  0  0
  -25.5621    9.6089   -0.6781 C   0  0  0  0  0  0  0  0  0  0  0  0
  -25.0130   10.6550    0.0042 C   0  0  0  0  0  0  0  0  0  0  0  0
  -23.6231   10.7296    0.1513 C   0  0  0  0  0  0  0  0  0  0  0  0
  -22.8064    9.7655   -0.3812 C   0  0  0  0  0  0  0  0  0  0  0  0
  -20.1972    8.4408   -0.8786 C   0  0  1  0  0  0  0  0  0  0  0  0
  -19.6161    6.3374   -0.4529 C   0  0  2  0  0  0  0  0  0  0  0  0
  -18.7974    6.3963   -1.7008 C   0  0  1  0  0  0  0  0  0  0  0  0
  -18.1408    7.7193   -1.9639 C   0  0  1  0  0  0  0  0  0  0  0  0
  -15.8247    8.3039   -1.2816 C   0  0  0  0  0  0  0  0  0  0  0  0
  -13.7018    8.8289    0.0601 C   0  0  0  0  0  0  0  0  0  0  0  0
  -13.3650   10.0563    0.5905 C   0  0  0  0  0  0  0  0  0  0  0  0
  -11.0576    9.6072    0.3840 C   0  0  0  0  0  0  0  0  0  0  0  0
  -11.3687    8.3738   -0.1492 C   0  0  0  0  0  0  0  0  0  0  0  0
  -12.6920    7.9937   -0.3070 C   0  0  0  0  0  0  0  0  0  0  0  0
  -19.2104    8.7892   -1.9458 C   0  0  1  0  0  0  0  0  0  0  0  0
  -23.3426    8.7083   -1.0695 C   0  0  0  0  0  0  0  0  0  0  0  0
  -24.7273    8.6422   -1.2108 C   0  0  0  0  0  0  0  0  0  0  0  0
  -14.3614   10.8955    0.9597 F   0  0  0  0  0  0  0  0  0  0  0  0
  -11.7711   11.7153    1.3008 F   0  0  0  0  0  0  0  0  0  0  0  0
  -10.3434    7.5531   -0.5093 F   0  0  0  0  0  0  0  0  0  0  0  0
  -13.0004    6.7840   -0.8291 F   0  0  0  0  0  0  0  0  0  0  0  0
  -17.0940    7.9701   -0.9930 N   0  0  0  0  0  0  0  0  0  0  0  0
   -9.7255   10.0547    0.5716 N   0  0  0  0  0  0  0  0  0  0  0  0
  -16.0158    8.2134    0.8756 N   0  0  0  0  0  0  0  0  0  0  0  0
  -17.1878    7.9209    0.3023 N   0  0  0  0  0  0  0  0  0  0  0  0
  -19.6607    7.6212    0.1110 O   0  0  0  0  0  0  0  0  0  0  0  0
  -19.9041    4.1457    0.5308 O   0  0  0  0  0  0  0  0  0  0  0  0
  -17.8721    5.3355   -1.7762 O   0  0  0  0  0  0  0  0  0  0  0  0
  -19.7988    8.7898   -3.2139 O   0  0  0  0  0  0  0  0  0  0  0  0
  -21.0525    9.8813   -0.1825 S   0  0  0  0  0  0  0  0  0  0  0  0
 10  1  1  1
  1 31  1  0
  2 13  2  0
 14  2  1  0
  2 28  1  0
 15  3  2  0
  3 16  1  0
  3 23  1  0
  5  4  1  0
  6  5  2  0
  5 21  1  0
  7  6  1  0
  8  7  2  0
  8 20  1  0
 34  8  1  0
 19  9  1  0
  9 30  1  0
  9 34  1  1
 11 10  1  0
 10 30  1  0
 12 11  1  0
 11 32  1  1
 12 19  1  0
 12 26  1  1
 13 26  1  0
 14 15  1  0
 14 18  2  0
 15 22  1  0
 16 17  2  0
 16 27  1  0
 17 18  1  0
 17 24  1  0
 18 25  1  0
 19 33  1  6
 20 21  2  0
 26 29  1  0
 28 29  2  0
M  END
$$$$
