
     RDKit          3D

 34 37  0  0  0  0  0  0  0  0999 V2000
  -18.9718    5.4774    1.0785 C   0  0  0  0  0  0  0  0  0  0  0  0
  -15.1150    8.7727   -0.1265 C   0  0  0  0  0  0  0  0  0  0  0  0
  -11.4537    9.1488    0.6496 C   0  0  0  0  0  0  0  0  0  0  0  0
  -26.7113    9.2517   -2.7644 C   0  0  0  0  0  0  0  0  0  0  0  0
  -25.3081    9.3684   -2.2804 C   0  0  0  0  0  0  0  0  0  0  0  0
  -24.3216    9.9026   -3.0569 C   0  0  0  0  0  0  0  0  0  0  0  0
  -23.0184    9.9899   -2.5538 C   0  0  0  0  0  0  0  0  0  0  0  0
  -22.7203    9.5457   -1.2914 C   0  0  0  0  0  0  0  0  0  0  0  0
  -20.1072    8.1645   -1.0191 C   0  0  1  0  0  0  0  0  0  0  0  0
  -19.4325    6.2415   -0.1303 C   0  0  2  0  0  0  0  0  0  0  0  0
  -18.5679    6.0802   -1.3375 C   0  0  1  0  0  0  0  0  0  0  0  0
  -17.9726    7.3529   -1.8631 C   0  0  1  0  0  0  0  0  0  0  0  0
  -15.7855    8.3787   -1.2836 C   0  0  0  0  0  0  0  0  0  0  0  0
  -13.7783    9.3806   -0.0386 C   0  0  0  0  0  0  0  0  0  0  0  0
  -12.7394    8.6684    0.5223 C   0  0  0  0  0  0  0  0  0  0  0  0
  -11.2222   10.4412    0.1706 C   0  0  0  0  0  0  0  0  0  0  0  0
  -12.2449   11.1740   -0.3946 C   0  0  0  0  0  0  0  0  0  0  0  0
  -13.5181   10.6361   -0.4949 C   0  0  0  0  0  0  0  0  0  0  0  0
  -19.0975    8.3344   -2.1082 C   0  0  1  0  0  0  0  0  0  0  0  0
  -23.7001    9.0065   -0.4988 C   0  0  0  0  0  0  0  0  0  0  0  0
  -24.9946    8.9237   -1.0080 C   0  0  0  0  0  0  0  0  0  0  0  0
  -12.9864    7.4181    0.9794 F   0  0  0  0  0  0  0  0  0  0  0  0
  -10.4465    8.4146    1.2122 F   0  0  0  0  0  0  0  0  0  0  0  0
  -11.9630   12.4276   -0.8455 F   0  0  0  0  0  0  0  0  0  0  0  0
  -14.5234   11.3522   -1.0495 F   0  0  0  0  0  0  0  0  0  0  0  0
  -16.9811    7.8701   -0.9406 N   0  0  0  0  0  0  0  0  0  0  0  0
   -9.8992   10.9336    0.3019 N   0  0  0  0  0  0  0  0  0  0  0  0
  -15.9565    8.4757    0.8750 N   0  0  0  0  0  0  0  0  0  0  0  0
  -17.0641    7.9370    0.3546 N   0  0  0  0  0  0  0  0  0  0  0  0
  -19.5685    7.6115    0.1397 O   0  0  0  0  0  0  0  0  0  0  0  0
  -19.8988    4.6000    1.5850 O   0  0  0  0  0  0  0  0  0  0  0  0
  -17.5850    5.0864   -1.1544 O   0  0  0  0  0  0  0  0  0  0  0  0
  -19.6329    8.0261   -3.3623 O   0  0  0  0  0  0  0  0  0  0  0  0
  -21.0657    9.6662   -0.6772 S   0  0  0  0  0  0  0  0  0  0  0  0
 10  1  1  1
  1 31  1  0
  2 13  2  0
 14  2  1  0
  2 28  1  0
 15  3  2  0
  3 16  1  0
  3 23  1  0
  5  4  1  0
  6  5  2  0
  5 21  1  0
  7  6  1  0
  8  7  2  0
  8 20  1  0
 34  8  1  0
 19  9  1  0
  9 30  1  0
  9 34  1  1
 11 10  1  0
 10 30  1  0
 12 11  1  0
 11 32  1  1
 12 19  1  0
 12 26  1  1
 13 26  1  0
 14 15  1  0
 14 18  2  0
 15 22  1  0
 16 17  2  0
 16 27  1  0
 17 18  1  0
 17 24  1  0
 18 25  1  0
 19 33  1  6
 20 21  2  0
 26 29  1  0
 28 29  2  0
M  END
$$$$
