
     RDKit          3D

 34 37  0  0  0  0  0  0  0  0999 V2000
  -18.9470    5.3765    1.1417 C   0  0  0  0  0  0  0  0  0  0  0  0
  -15.0964    8.4114   -0.0698 C   0  0  0  0  0  0  0  0  0  0  0  0
  -11.5866    9.6722   -0.5595 C   0  0  0  0  0  0  0  0  0  0  0  0
  -26.0647    8.4834   -4.7081 C   0  0  0  0  0  0  0  0  0  0  0  0
  -24.8395    8.6806   -3.8854 C   0  0  0  0  0  0  0  0  0  0  0  0
  -24.1032    9.8271   -3.9550 C   0  0  0  0  0  0  0  0  0  0  0  0
  -22.9595    9.9622   -3.1595 C   0  0  0  0  0  0  0  0  0  0  0  0
  -22.5695    8.9578   -2.3115 C   0  0  0  0  0  0  0  0  0  0  0  0
  -20.0560    7.6836   -1.3795 C   0  0  1  0  0  0  0  0  0  0  0  0
  -19.3503    5.9427   -0.1902 C   0  0  2  0  0  0  0  0  0  0  0  0
  -18.3837    5.6806   -1.2983 C   0  0  1  0  0  0  0  0  0  0  0  0
  -17.8190    6.9091   -1.9482 C   0  0  1  0  0  0  0  0  0  0  0  0
  -15.5943    7.6422   -1.1205 C   0  0  0  0  0  0  0  0  0  0  0  0
  -13.6859    8.7137    0.2183 C   0  0  0  0  0  0  0  0  0  0  0  0
  -12.9145    9.3461   -0.7336 C   0  0  0  0  0  0  0  0  0  0  0  0
  -11.0170    9.3268    0.6691 C   0  0  0  0  0  0  0  0  0  0  0  0
  -11.7677    8.6935    1.6376 C   0  0  0  0  0  0  0  0  0  0  0  0
  -13.0997    8.3914    1.4035 C   0  0  0  0  0  0  0  0  0  0  0  0
  -18.9729    7.7741   -2.4056 C   0  0  1  0  0  0  0  0  0  0  0  0
  -23.2984    7.7997   -2.2301 C   0  0  0  0  0  0  0  0  0  0  0  0
  -24.4355    7.6742   -3.0258 C   0  0  0  0  0  0  0  0  0  0  0  0
  -13.4870    9.6719   -1.9165 F   0  0  0  0  0  0  0  0  0  0  0  0
  -10.8505   10.2997   -1.5262 F   0  0  0  0  0  0  0  0  0  0  0  0
  -11.1621    8.3806    2.8165 F   0  0  0  0  0  0  0  0  0  0  0  0
  -13.8390    7.7709    2.3519 F   0  0  0  0  0  0  0  0  0  0  0  0
  -16.9350    7.6072   -1.0356 N   0  0  0  0  0  0  0  0  0  0  0  0
   -9.6512    9.6633    0.8468 N   0  0  0  0  0  0  0  0  0  0  0  0
  -16.1833    8.8089    0.6087 N   0  0  0  0  0  0  0  0  0  0  0  0
  -17.2674    8.3107    0.0053 N   0  0  0  0  0  0  0  0  0  0  0  0
  -19.5828    7.3245   -0.1201 O   0  0  0  0  0  0  0  0  0  0  0  0
  -19.9976    5.0074    1.9453 O   0  0  0  0  0  0  0  0  0  0  0  0
  -17.3655    4.7860   -0.9107 O   0  0  0  0  0  0  0  0  0  0  0  0
  -19.3878    7.2689   -3.6413 O   0  0  0  0  0  0  0  0  0  0  0  0
  -21.1202    9.1514   -1.3160 S   0  0  0  0  0  0  0  0  0  0  0  0
 10  1  1  1
  1 31  1  0
  2 13  2  0
 14  2  1  0
  2 28  1  0
 15  3  2  0
  3 16  1  0
  3 23  1  0
  5  4  1  0
  6  5  2  0
  5 21  1  0
  7  6  1  0
  8  7  2  0
  8 20  1  0
 34  8  1  0
 19  9  1  0
  9 30  1  0
  9 34  1  1
 11 10  1  0
 10 30  1  0
 12 11  1  0
 11 32  1  1
 12 19  1  0
 12 26  1  1
 13 26  1  0
 14 15  1  0
 14 18  2  0
 15 22  1  0
 16 17  2  0
 16 27  1  0
 17 18  1  0
 17 24  1  0
 18 25  1  0
 19 33  1  6
 20 21  2  0
 26 29  1  0
 28 29  2  0
M  END
$$$$
