
     RDKit          3D

 34 37  0  0  0  0  0  0  0  0999 V2000
  -20.9919    5.4380   -1.2050 C   0  0  0  0  0  0  0  0  0  0  0  0
  -14.6634    8.3682   -0.3567 C   0  0  0  0  0  0  0  0  0  0  0  0
  -11.5868    9.9398    1.0965 C   0  0  0  0  0  0  0  0  0  0  0  0
  -26.9801   10.0788   -1.4670 C   0  0  0  0  0  0  0  0  0  0  0  0
  -25.6032   10.0233   -0.8944 C   0  0  0  0  0  0  0  0  0  0  0  0
  -24.4977   10.4552   -1.5790 C   0  0  0  0  0  0  0  0  0  0  0  0
  -23.2497   10.3830   -1.0074 C   0  0  0  0  0  0  0  0  0  0  0  0
  -23.0426    9.8826    0.2607 C   0  0  0  0  0  0  0  0  0  0  0  0
  -20.3930    8.7905   -0.0909 C   0  0  1  0  0  0  0  0  0  0  0  0
  -20.3001    6.8010   -1.1518 C   0  0  2  0  0  0  0  0  0  0  0  0
  -18.8316    6.6404   -0.8213 C   0  0  1  0  0  0  0  0  0  0  0  0
  -18.2146    8.0132   -0.7861 C   0  0  1  0  0  0  0  0  0  0  0  0
  -15.8787    8.9441   -0.5869 C   0  0  0  0  0  0  0  0  0  0  0  0
  -13.3421    8.9642   -0.2523 C   0  0  0  0  0  0  0  0  0  0  0  0
  -12.8540    9.3627    0.9596 C   0  0  0  0  0  0  0  0  0  0  0  0
  -10.7888   10.1202   -0.0216 C   0  0  0  0  0  0  0  0  0  0  0  0
  -11.2745    9.7210   -1.2449 C   0  0  0  0  0  0  0  0  0  0  0  0
  -12.5360    9.1503   -1.3556 C   0  0  0  0  0  0  0  0  0  0  0  0
  -18.9286    8.8042    0.2873 C   0  0  1  0  0  0  0  0  0  0  0  0
  -24.1503    9.4484    0.9505 C   0  0  0  0  0  0  0  0  0  0  0  0
  -25.4290    9.5135    0.3860 C   0  0  0  0  0  0  0  0  0  0  0  0
  -13.6034    9.2037    2.0784 F   0  0  0  0  0  0  0  0  0  0  0  0
  -11.0988   10.3364    2.2960 F   0  0  0  0  0  0  0  0  0  0  0  0
  -10.5028    9.8940   -2.3356 F   0  0  0  0  0  0  0  0  0  0  0  0
  -12.9689    8.7711   -2.6001 F   0  0  0  0  0  0  0  0  0  0  0  0
  -16.7886    7.9785   -0.5925 N   0  0  0  0  0  0  0  0  0  0  0  0
   -9.4812   10.7105    0.0851 N   0  0  0  0  0  0  0  0  0  0  0  0
  -14.8736    7.0497   -0.2272 N   0  0  0  0  0  0  0  0  0  0  0  0
  -16.1442    6.8310   -0.3699 N   0  0  0  0  0  0  0  0  0  0  0  0
  -20.8739    7.4867   -0.0721 O   0  0  0  0  0  0  0  0  0  0  0  0
  -22.2888    5.6648   -1.7050 O   0  0  0  0  0  0  0  0  0  0  0  0
  -18.7625    6.1052    0.4772 O   0  0  0  0  0  0  0  0  0  0  0  0
  -18.4843   10.1059    0.3691 O   0  0  0  0  0  0  0  0  0  0  0  0
  -21.4119    9.8039    0.9702 S   0  0  0  0  0  0  0  0  0  0  0  0
 10  1  1  0
  1 31  1  6
  2 13  2  0
 14  2  1  0
  2 28  1  0
 15  3  2  0
  3 16  1  0
  3 23  1  0
  4  5  1  6
  6  5  2  0
  5 21  1  0
  7  6  1  0
  8  7  2  0
  8 20  1  0
 34  8  1  0
 19  9  1  0
  9 30  1  0
  9 34  1  1
 11 10  1  0
 10 30  1  1
 12 11  1  0
 11 32  1  1
 12 19  1  0
 12 26  1  1
 13 26  1  0
 14 15  1  0
 14 18  2  0
 15 22  1  0
 16 17  2  0
 16 27  1  0
 17 18  1  0
 17 24  1  0
 18 25  1  0
 19 33  1  6
 20 21  2  0
 26 29  1  0
 28 29  2  0
M  END
$$$$
