
     RDKit          3D

 34 37  0  0  0  0  0  0  0  0999 V2000
  -19.2230    5.1545   -0.0349 C   0  0  0  0  0  0  0  0  0  0  0  0
  -15.1238    8.3523   -0.3576 C   0  0  0  0  0  0  0  0  0  0  0  0
  -11.4159    8.6192   -0.9311 C   0  0  0  0  0  0  0  0  0  0  0  0
  -26.9724    9.8343   -0.8954 C   0  0  0  0  0  0  0  0  0  0  0  0
  -25.4969    9.7995   -0.6983 C   0  0  0  0  0  0  0  0  0  0  0  0
  -24.8477    8.6587   -0.3262 C   0  0  0  0  0  0  0  0  0  0  0  0
  -23.4588    8.6796   -0.1549 C   0  0  0  0  0  0  0  0  0  0  0  0
  -22.7423    9.8311   -0.3561 C   0  0  0  0  0  0  0  0  0  0  0  0
  -20.1914    8.4695   -1.0262 C   0  0  1  0  0  0  0  0  0  0  0  0
  -19.6628    6.3147   -0.8821 C   0  0  2  0  0  0  0  0  0  0  0  0
  -18.8719    6.5083   -2.1343 C   0  0  1  0  0  0  0  0  0  0  0  0
  -18.1829    7.8360   -2.2478 C   0  0  1  0  0  0  0  0  0  0  0  0
  -15.8764    8.4153   -1.5294 C   0  0  0  0  0  0  0  0  0  0  0  0
  -13.7262    8.7741   -0.1764 C   0  0  0  0  0  0  0  0  0  0  0  0
  -12.7503    8.2849   -1.0187 C   0  0  0  0  0  0  0  0  0  0  0  0
  -11.0635    9.5118    0.0850 C   0  0  0  0  0  0  0  0  0  0  0  0
  -12.0213   10.0152    0.9404 C   0  0  0  0  0  0  0  0  0  0  0  0
  -13.3485    9.6412    0.8022 C   0  0  0  0  0  0  0  0  0  0  0  0
  -19.2198    8.9230   -2.0677 C   0  0  1  0  0  0  0  0  0  0  0  0
  -23.3797   10.9856   -0.7301 C   0  0  0  0  0  0  0  0  0  0  0  0
  -24.7626   10.9553   -0.8983 C   0  0  0  0  0  0  0  0  0  0  0  0
  -13.1143    7.4218   -1.9962 F   0  0  0  0  0  0  0  0  0  0  0  0
  -10.4736    8.1142   -1.7838 F   0  0  0  0  0  0  0  0  0  0  0  0
  -11.6223   10.8819    1.9121 F   0  0  0  0  0  0  0  0  0  0  0  0
  -14.2906   10.1339    1.6393 F   0  0  0  0  0  0  0  0  0  0  0  0
  -17.1068    7.9353   -1.2815 N   0  0  0  0  0  0  0  0  0  0  0  0
   -9.6908    9.8551    0.1734 N   0  0  0  0  0  0  0  0  0  0  0  0
  -15.9547    7.8272    0.5554 N   0  0  0  0  0  0  0  0  0  0  0  0
  -17.1333    7.5888   -0.0292 N   0  0  0  0  0  0  0  0  0  0  0  0
  -19.6564    7.5184   -0.1614 O   0  0  0  0  0  0  0  0  0  0  0  0
  -20.2501    4.3895    0.4605 O   0  0  0  0  0  0  0  0  0  0  0  0
  -17.9803    5.4413   -2.3663 O   0  0  0  0  0  0  0  0  0  0  0  0
  -19.8373    9.0982   -3.3096 O   0  0  0  0  0  0  0  0  0  0  0  0
  -20.9874    9.8333   -0.1332 S   0  0  0  0  0  0  0  0  0  0  0  0
 10  1  1  1
  1 31  1  0
  2 13  2  0
 14  2  1  0
  2 28  1  0
 15  3  2  0
  3 16  1  0
  3 23  1  0
  5  4  1  0
  6  5  2  0
  5 21  1  0
  7  6  1  0
  8  7  2  0
  8 20  1  0
 34  8  1  0
 19  9  1  0
  9 30  1  0
  9 34  1  1
 11 10  1  0
 10 30  1  0
 12 11  1  0
 11 32  1  1
 12 19  1  0
 12 26  1  1
 13 26  1  0
 14 15  1  0
 14 18  2  0
 15 22  1  0
 16 17  2  0
 16 27  1  0
 17 18  1  0
 17 24  1  0
 18 25  1  0
 19 33  1  6
 20 21  2  0
 26 29  1  0
 28 29  2  0
M  END
$$$$
