
     RDKit          3D

 34 37  0  0  0  0  0  0  0  0999 V2000
  -20.8718    5.4896   -1.6408 C   0  0  0  0  0  0  0  0  0  0  0  0
  -15.0956    9.0552   -0.4710 C   0  0  0  0  0  0  0  0  0  0  0  0
  -12.3853   10.5615    1.6345 C   0  0  0  0  0  0  0  0  0  0  0  0
  -27.3965   10.1919   -0.8412 C   0  0  0  0  0  0  0  0  0  0  0  0
  -26.0385    9.9438   -0.2746 C   0  0  0  0  0  0  0  0  0  0  0  0
  -25.8399    9.3159    0.9270 C   0  0  0  0  0  0  0  0  0  0  0  0
  -24.5680    9.1107    1.4061 C   0  0  0  0  0  0  0  0  0  0  0  0
  -23.4427    9.5161    0.7201 C   0  0  0  0  0  0  0  0  0  0  0  0
  -20.7730    8.6545    0.0363 C   0  0  1  0  0  0  0  0  0  0  0  0
  -20.4509    6.9391   -1.3941 C   0  0  2  0  0  0  0  0  0  0  0  0
  -18.9473    7.0400   -1.2501 C   0  0  1  0  0  0  0  0  0  0  0  0
  -18.6036    8.4861   -1.0115 C   0  0  1  0  0  0  0  0  0  0  0  0
  -16.3387    8.8301    0.0445 C   0  0  0  0  0  0  0  0  0  0  0  0
  -13.8187    9.2468    0.1960 C   0  0  0  0  0  0  0  0  0  0  0  0
  -13.6019   10.3456    0.9780 C   0  0  0  0  0  0  0  0  0  0  0  0
  -11.3577    9.6424    1.4981 C   0  0  0  0  0  0  0  0  0  0  0  0
  -11.5697    8.5338    0.7121 C   0  0  0  0  0  0  0  0  0  0  0  0
  -12.7864    8.3412    0.0702 C   0  0  0  0  0  0  0  0  0  0  0  0
  -19.3000    8.9141    0.2610 C   0  0  1  0  0  0  0  0  0  0  0  0
  -23.6386   10.1465   -0.4863 C   0  0  0  0  0  0  0  0  0  0  0  0
  -24.9253   10.3647   -0.9911 C   0  0  0  0  0  0  0  0  0  0  0  0
  -14.5819   11.2690    1.1374 F   0  0  0  0  0  0  0  0  0  0  0  0
  -12.1659   11.6493    2.4107 F   0  0  0  0  0  0  0  0  0  0  0  0
  -10.5739    7.6367    0.5759 F   0  0  0  0  0  0  0  0  0  0  0  0
  -12.9419    7.2182   -0.7008 F   0  0  0  0  0  0  0  0  0  0  0  0
  -17.1841    8.7224   -0.9725 N   0  0  0  0  0  0  0  0  0  0  0  0
  -10.0948    9.8348    2.1597 N   0  0  0  0  0  0  0  0  0  0  0  0
  -15.2240    9.0780   -1.8061 N   0  0  0  0  0  0  0  0  0  0  0  0
  -16.4735    8.8784   -2.0915 N   0  0  0  0  0  0  0  0  0  0  0  0
  -20.9902    7.2945   -0.1498 O   0  0  0  0  0  0  0  0  0  0  0  0
  -22.0997    5.5392   -2.3287 O   0  0  0  0  0  0  0  0  0  0  0  0
  -18.5997    6.3196   -0.0936 O   0  0  0  0  0  0  0  0  0  0  0  0
  -19.1041   10.2474    0.5486 O   0  0  0  0  0  0  0  0  0  0  0  0
  -21.8098    9.2340    1.3706 S   0  0  0  0  0  0  0  0  0  0  0  0
 10  1  1  0
  1 31  1  6
  2 13  2  0
 14  2  1  0
  2 28  1  0
 15  3  2  0
  3 16  1  0
  3 23  1  0
  4  5  1  6
  6  5  2  0
  5 21  1  0
  7  6  1  0
  8  7  2  0
  8 20  1  0
 34  8  1  0
 19  9  1  0
  9 30  1  0
  9 34  1  1
 11 10  1  0
 10 30  1  1
 12 11  1  0
 11 32  1  1
 12 19  1  0
 12 26  1  1
 13 26  1  0
 14 15  1  0
 14 18  2  0
 15 22  1  0
 16 17  2  0
 16 27  1  0
 17 18  1  0
 17 24  1  0
 18 25  1  0
 19 33  1  6
 20 21  2  0
 26 29  1  0
 28 29  2  0
M  END
$$$$
