
     RDKit          3D

 34 37  0  0  0  0  0  0  0  0999 V2000
  -20.3055    4.6128   -0.1767 C   0  0  0  0  0  0  0  0  0  0  0  0
  -14.8052    8.5769   -0.9436 C   0  0  0  0  0  0  0  0  0  0  0  0
  -12.2454   10.5624    0.9413 C   0  0  0  0  0  0  0  0  0  0  0  0
  -27.1856    8.1620   -2.0502 C   0  0  0  0  0  0  0  0  0  0  0  0
  -25.8208    8.4276   -1.5084 C   0  0  0  0  0  0  0  0  0  0  0  0
  -24.6768    8.0951   -2.1854 C   0  0  0  0  0  0  0  0  0  0  0  0
  -23.4420    8.3609   -1.6431 C   0  0  0  0  0  0  0  0  0  0  0  0
  -23.2864    8.9645   -0.4132 C   0  0  0  0  0  0  0  0  0  0  0  0
  -20.5109    8.1745   -0.5100 C   0  0  1  0  0  0  0  0  0  0  0  0
  -19.9888    5.9928   -0.7550 C   0  0  2  0  0  0  0  0  0  0  0  0
  -18.5076    6.2873   -0.6499 C   0  0  1  0  0  0  0  0  0  0  0  0
  -18.2670    7.6533   -1.2350 C   0  0  1  0  0  0  0  0  0  0  0  0
  -16.0166    8.3716   -0.3502 C   0  0  0  0  0  0  0  0  0  0  0  0
  -13.5349    8.9943   -0.3741 C   0  0  0  0  0  0  0  0  0  0  0  0
  -13.4515   10.1313    0.3782 C   0  0  0  0  0  0  0  0  0  0  0  0
  -11.0899    9.8250    0.7396 C   0  0  0  0  0  0  0  0  0  0  0  0
  -11.1673    8.6791   -0.0170 C   0  0  0  0  0  0  0  0  0  0  0  0
  -12.3764    8.2714   -0.5658 C   0  0  0  0  0  0  0  0  0  0  0  0
  -19.0752    8.6426   -0.4254 C   0  0  1  0  0  0  0  0  0  0  0  0
  -24.4327    9.2994    0.2688 C   0  0  0  0  0  0  0  0  0  0  0  0
  -25.6988    9.0372   -0.2662 C   0  0  0  0  0  0  0  0  0  0  0  0
  -14.5593   10.8813    0.5994 F   0  0  0  0  0  0  0  0  0  0  0  0
  -12.1580   11.6889    1.6879 F   0  0  0  0  0  0  0  0  0  0  0  0
  -10.0467    7.9582   -0.2164 F   0  0  0  0  0  0  0  0  0  0  0  0
  -12.3946    7.1209   -1.3114 F   0  0  0  0  0  0  0  0  0  0  0  0
  -16.8701    7.9960   -1.2942 N   0  0  0  0  0  0  0  0  0  0  0  0
   -9.8339   10.2408    1.3047 N   0  0  0  0  0  0  0  0  0  0  0  0
  -14.9605    8.3161   -2.2502 N   0  0  0  0  0  0  0  0  0  0  0  0
  -16.1955    7.9711   -2.4456 N   0  0  0  0  0  0  0  0  0  0  0  0
  -20.6343    6.9200    0.0751 O   0  0  0  0  0  0  0  0  0  0  0  0
  -21.6384    4.3257   -0.5290 O   0  0  0  0  0  0  0  0  0  0  0  0
  -18.2005    6.3473    0.7211 O   0  0  0  0  0  0  0  0  0  0  0  0
  -18.9786    9.9283   -0.9116 O   0  0  0  0  0  0  0  0  0  0  0  0
  -21.6714    9.2939    0.2590 S   0  0  0  0  0  0  0  0  0  0  0  0
 10  1  1  0
  1 31  1  6
  2 13  2  0
 14  2  1  0
  2 28  1  0
 15  3  2  0
  3 16  1  0
  3 23  1  0
  4  5  1  6
  6  5  2  0
  5 21  1  0
  7  6  1  0
  8  7  2  0
  8 20  1  0
 34  8  1  0
 19  9  1  0
  9 30  1  0
  9 34  1  1
 11 10  1  0
 10 30  1  1
 12 11  1  0
 11 32  1  1
 12 19  1  0
 12 26  1  1
 13 26  1  0
 14 15  1  0
 14 18  2  0
 15 22  1  0
 16 17  2  0
 16 27  1  0
 17 18  1  0
 17 24  1  0
 18 25  1  0
 19 33  1  6
 20 21  2  0
 26 29  1  0
 28 29  2  0
M  END
$$$$
