
     RDKit          3D

 34 37  0  0  0  0  0  0  0  0999 V2000
  -19.0965    6.4263    1.4750 C   0  0  0  0  0  0  0  0  0  0  0  0
  -15.1057    8.6219   -0.4299 C   0  0  0  0  0  0  0  0  0  0  0  0
  -11.9716    8.5010    1.6465 C   0  0  0  0  0  0  0  0  0  0  0  0
  -26.9494    7.9325   -2.2382 C   0  0  0  0  0  0  0  0  0  0  0  0
  -25.4940    8.2457   -2.2642 C   0  0  0  0  0  0  0  0  0  0  0  0
  -24.8145    8.4107   -3.4357 C   0  0  0  0  0  0  0  0  0  0  0  0
  -23.4464    8.7047   -3.4046 C   0  0  0  0  0  0  0  0  0  0  0  0
  -22.7804    8.8291   -2.2126 C   0  0  0  0  0  0  0  0  0  0  0  0
  -20.0546    7.7626   -1.7196 C   0  0  1  0  0  0  0  0  0  0  0  0
  -19.4503    6.5134    0.0175 C   0  0  2  0  0  0  0  0  0  0  0  0
  -18.4780    5.8494   -0.9015 C   0  0  1  0  0  0  0  0  0  0  0  0
  -17.8462    6.7566   -1.9157 C   0  0  1  0  0  0  0  0  0  0  0  0
  -15.6299    7.5054   -1.0796 C   0  0  0  0  0  0  0  0  0  0  0  0
  -13.7076    8.8397   -0.0277 C   0  0  0  0  0  0  0  0  0  0  0  0
  -13.2602    8.3499    1.1811 C   0  0  0  0  0  0  0  0  0  0  0  0
  -11.0886    9.1987    0.8176 C   0  0  0  0  0  0  0  0  0  0  0  0
  -11.5119    9.6985   -0.3962 C   0  0  0  0  0  0  0  0  0  0  0  0
  -12.8215    9.5143   -0.8100 C   0  0  0  0  0  0  0  0  0  0  0  0
  -18.9510    7.4533   -2.6792 C   0  0  1  0  0  0  0  0  0  0  0  0
  -23.4487    8.6662   -1.0269 C   0  0  0  0  0  0  0  0  0  0  0  0
  -24.8105    8.3737   -1.0677 C   0  0  0  0  0  0  0  0  0  0  0  0
  -14.1327    7.6769    1.9678 F   0  0  0  0  0  0  0  0  0  0  0  0
  -11.5616    8.0022    2.8519 F   0  0  0  0  0  0  0  0  0  0  0  0
  -10.6093   10.3696   -1.1640 F   0  0  0  0  0  0  0  0  0  0  0  0
  -13.2397   10.0028   -2.0007 F   0  0  0  0  0  0  0  0  0  0  0  0
  -16.9468    7.6929   -1.2708 N   0  0  0  0  0  0  0  0  0  0  0  0
   -9.7634    9.3528    1.2974 N   0  0  0  0  0  0  0  0  0  0  0  0
  -16.1534    9.4420   -0.2587 N   0  0  0  0  0  0  0  0  0  0  0  0
  -17.2402    8.8568   -0.7726 N   0  0  0  0  0  0  0  0  0  0  0  0
  -19.6201    7.8422   -0.3991 O   0  0  0  0  0  0  0  0  0  0  0  0
  -20.0823    5.8947    2.2696 O   0  0  0  0  0  0  0  0  0  0  0  0
  -17.5089    5.1060   -0.1978 O   0  0  0  0  0  0  0  0  0  0  0  0
  -19.3675    6.5689   -3.6786 O   0  0  0  0  0  0  0  0  0  0  0  0
  -21.0510    9.2009   -2.1984 S   0  0  0  0  0  0  0  0  0  0  0  0
 10  1  1  1
  1 31  1  0
  2 13  2  0
 14  2  1  0
  2 28  1  0
 15  3  2  0
  3 16  1  0
  3 23  1  0
  5  4  1  0
  6  5  2  0
  5 21  1  0
  7  6  1  0
  8  7  2  0
  8 20  1  0
 34  8  1  0
 19  9  1  0
  9 30  1  0
  9 34  1  6
 11 10  1  0
 10 30  1  0
 12 11  1  0
 11 32  1  1
 12 19  1  0
 12 26  1  1
 13 26  1  0
 14 15  1  0
 14 18  2  0
 15 22  1  0
 16 17  2  0
 16 27  1  0
 17 18  1  0
 17 24  1  0
 18 25  1  0
 19 33  1  6
 20 21  2  0
 26 29  1  0
 28 29  2  0
M  END
$$$$
