
     RDKit          3D

 34 37  0  0  0  0  0  0  0  0999 V2000
  -18.8765    6.1360    1.3460 C   0  0  0  0  0  0  0  0  0  0  0  0
  -15.3213    9.1700   -0.3628 C   0  0  0  0  0  0  0  0  0  0  0  0
  -11.8981    9.0203    1.1890 C   0  0  0  0  0  0  0  0  0  0  0  0
  -26.7727    7.6138   -3.7144 C   0  0  0  0  0  0  0  0  0  0  0  0
  -25.4394    8.0176   -3.1890 C   0  0  0  0  0  0  0  0  0  0  0  0
  -24.2906    7.4025   -3.5930 C   0  0  0  0  0  0  0  0  0  0  0  0
  -23.0623    7.8210   -3.0684 C   0  0  0  0  0  0  0  0  0  0  0  0
  -22.9985    8.8407   -2.1540 C   0  0  0  0  0  0  0  0  0  0  0  0
  -20.2574    7.9747   -1.4148 C   0  0  1  0  0  0  0  0  0  0  0  0
  -19.3710    6.4770   -0.0311 C   0  0  2  0  0  0  0  0  0  0  0  0
  -18.4259    6.1353   -1.1360 C   0  0  1  0  0  0  0  0  0  0  0  0
  -17.9861    7.2993   -1.9741 C   0  0  1  0  0  0  0  0  0  0  0  0
  -15.7866    8.1775   -1.2242 C   0  0  0  0  0  0  0  0  0  0  0  0
  -13.9192    9.5120   -0.0776 C   0  0  0  0  0  0  0  0  0  0  0  0
  -13.2129    8.7794    0.8528 C   0  0  0  0  0  0  0  0  0  0  0  0
  -11.2708   10.0797    0.5274 C   0  0  0  0  0  0  0  0  0  0  0  0
  -11.9558   10.8275   -0.4074 C   0  0  0  0  0  0  0  0  0  0  0  0
  -13.2781   10.5366   -0.7031 C   0  0  0  0  0  0  0  0  0  0  0  0
  -19.2219    8.0015   -2.4925 C   0  0  1  0  0  0  0  0  0  0  0  0
  -24.1436    9.4688   -1.7379 C   0  0  0  0  0  0  0  0  0  0  0  0
  -25.3618    9.0455   -2.2656 C   0  0  0  0  0  0  0  0  0  0  0  0
  -13.8404    7.7574    1.4813 F   0  0  0  0  0  0  0  0  0  0  0  0
  -11.2276    8.2735    2.1178 F   0  0  0  0  0  0  0  0  0  0  0  0
  -11.2956   11.8476   -1.0222 F   0  0  0  0  0  0  0  0  0  0  0  0
  -13.9526   11.2680   -1.6203 F   0  0  0  0  0  0  0  0  0  0  0  0
  -17.1303    8.1837   -1.2080 N   0  0  0  0  0  0  0  0  0  0  0  0
   -9.9183   10.3258    0.8739 N   0  0  0  0  0  0  0  0  0  0  0  0
  -16.4295    9.7352    0.1391 N   0  0  0  0  0  0  0  0  0  0  0  0
  -17.4952    9.1222   -0.3865 N   0  0  0  0  0  0  0  0  0  0  0  0
  -19.7126    7.8333   -0.1412 O   0  0  0  0  0  0  0  0  0  0  0  0
  -19.8621    5.7772    2.2324 O   0  0  0  0  0  0  0  0  0  0  0  0
  -17.3254    5.3838   -0.6764 O   0  0  0  0  0  0  0  0  0  0  0  0
  -19.6375    7.2974   -3.6265 O   0  0  0  0  0  0  0  0  0  0  0  0
  -21.4345    9.3521   -1.5048 S   0  0  0  0  0  0  0  0  0  0  0  0
 10  1  1  1
  1 31  1  0
  2 13  2  0
 14  2  1  0
  2 28  1  0
 15  3  2  0
  3 16  1  0
  3 23  1  0
  5  4  1  0
  6  5  2  0
  5 21  1  0
  7  6  1  0
  8  7  2  0
  8 20  1  0
 34  8  1  0
 19  9  1  0
  9 30  1  0
  9 34  1  1
 11 10  1  0
 10 30  1  0
 12 11  1  0
 11 32  1  1
 12 19  1  0
 12 26  1  1
 13 26  1  0
 14 15  1  0
 14 18  2  0
 15 22  1  0
 16 17  2  0
 16 27  1  0
 17 18  1  0
 17 24  1  0
 18 25  1  0
 19 33  1  6
 20 21  2  0
 26 29  1  0
 28 29  2  0
M  END
$$$$
