
     RDKit          3D

 34 37  0  0  0  0  0  0  0  0999 V2000
  -19.8404   12.2720   -1.5373 C   0  0  0  0  0  0  0  0  0  0  0  0
  -16.8179    8.5555   -0.2127 C   0  0  0  0  0  0  0  0  0  0  0  0
  -13.6098    8.9900    1.7025 C   0  0  0  0  0  0  0  0  0  0  0  0
  -28.0368    6.3660   -2.0916 C   0  0  0  0  0  0  0  0  0  0  0  0
  -26.6281    6.8066   -2.2871 C   0  0  0  0  0  0  0  0  0  0  0  0
  -25.6477    6.5014   -1.3887 C   0  0  0  0  0  0  0  0  0  0  0  0
  -24.3387    6.9396   -1.6201 C   0  0  0  0  0  0  0  0  0  0  0  0
  -24.0289    7.6714   -2.7375 C   0  0  0  0  0  0  0  0  0  0  0  0
  -21.7583    9.2353   -1.6382 C   0  0  1  0  0  0  0  0  0  0  0  0
  -20.8068   11.1864   -1.1570 C   0  0  2  0  0  0  0  0  0  0  0  0
  -20.6545   10.6759    0.2384 C   0  0  1  0  0  0  0  0  0  0  0  0
  -20.3471    9.2115    0.3457 C   0  0  1  0  0  0  0  0  0  0  0  0
  -17.9073    8.8281    0.6135 C   0  0  0  0  0  0  0  0  0  0  0  0
  -15.4189    8.3609    0.1983 C   0  0  0  0  0  0  0  0  0  0  0  0
  -14.9048    9.0993    1.2431 C   0  0  0  0  0  0  0  0  0  0  0  0
  -12.7933    8.0641    1.0471 C   0  0  0  0  0  0  0  0  0  0  0  0
  -13.2841    7.3135   -0.0008 C   0  0  0  0  0  0  0  0  0  0  0  0
  -14.5965    7.4685   -0.4177 C   0  0  0  0  0  0  0  0  0  0  0  0
  -21.4092    8.4491   -0.4157 C   0  0  1  0  0  0  0  0  0  0  0  0
  -25.0025    7.9863   -3.6496 C   0  0  0  0  0  0  0  0  0  0  0  0
  -26.3027    7.5457   -3.4109 C   0  0  0  0  0  0  0  0  0  0  0  0
  -15.7138    9.9902    1.8637 F   0  0  0  0  0  0  0  0  0  0  0  0
  -13.1324    9.7392    2.7420 F   0  0  0  0  0  0  0  0  0  0  0  0
  -12.4450    6.4258   -0.6027 F   0  0  0  0  0  0  0  0  0  0  0  0
  -15.0812    6.7330   -1.4449 F   0  0  0  0  0  0  0  0  0  0  0  0
  -19.0115    8.9344   -0.1450 N   0  0  0  0  0  0  0  0  0  0  0  0
  -11.4618    7.9524    1.5211 N   0  0  0  0  0  0  0  0  0  0  0  0
  -17.3304    8.5105   -1.4516 N   0  0  0  0  0  0  0  0  0  0  0  0
  -18.6452    8.7414   -1.3769 N   0  0  0  0  0  0  0  0  0  0  0  0
  -20.7407   10.0972   -2.0388 O   0  0  0  0  0  0  0  0  0  0  0  0
  -20.3763   13.2612   -2.3248 O   0  0  0  0  0  0  0  0  0  0  0  0
  -19.7470   11.4512    0.9884 O   0  0  0  0  0  0  0  0  0  0  0  0
  -22.5033    8.3179    0.4445 O   0  0  0  0  0  0  0  0  0  0  0  0
  -22.3673    8.2144   -3.0085 S   0  0  0  0  0  0  0  0  0  0  0  0
 10  1  1  6
  1 31  1  0
  2 13  2  0
 14  2  1  0
  2 28  1  0
 15  3  2  0
  3 16  1  0
  3 23  1  0
  5  4  1  0
  6  5  2  0
  5 21  1  0
  7  6  1  0
  8  7  2  0
  8 20  1  0
 34  8  1  0
 19  9  1  0
  9 30  1  0
  9 34  1  6
 11 10  1  0
 10 30  1  0
 12 11  1  0
 11 32  1  6
 12 19  1  0
 12 26  1  6
 13 26  1  0
 14 15  1  0
 14 18  2  0
 15 22  1  0
 16 17  2  0
 16 27  1  0
 17 18  1  0
 17 24  1  0
 18 25  1  0
 19 33  1  1
 20 21  2  0
 26 29  1  0
 28 29  2  0
M  END
$$$$
