
     RDKit          3D

 34 37  0  0  0  0  0  0  0  0999 V2000
  -19.9732    4.7612    0.2106 C   0  0  0  0  0  0  0  0  0  0  0  0
  -14.6497    8.7478   -0.4920 C   0  0  0  0  0  0  0  0  0  0  0  0
  -10.9082    8.5325   -0.4407 C   0  0  0  0  0  0  0  0  0  0  0  0
  -26.7730    7.4773   -3.1915 C   0  0  0  0  0  0  0  0  0  0  0  0
  -25.5753    7.9245   -2.4219 C   0  0  0  0  0  0  0  0  0  0  0  0
  -25.6434    8.3324   -1.1155 C   0  0  0  0  0  0  0  0  0  0  0  0
  -24.5105    8.7355   -0.4496 C   0  0  0  0  0  0  0  0  0  0  0  0
  -23.2668    8.7524   -1.0449 C   0  0  0  0  0  0  0  0  0  0  0  0
  -20.4632    8.2139   -0.6126 C   0  0  1  0  0  0  0  0  0  0  0  0
  -19.7093    6.0900   -0.4993 C   0  0  2  0  0  0  0  0  0  0  0  0
  -18.2919    6.5571   -0.2458 C   0  0  1  0  0  0  0  0  0  0  0  0
  -18.1007    7.8628   -0.9704 C   0  0  1  0  0  0  0  0  0  0  0  0
  -15.7014    7.9310   -0.1948 C   0  0  0  0  0  0  0  0  0  0  0  0
  -13.2796    8.7353   -0.0075 C   0  0  0  0  0  0  0  0  0  0  0  0
  -12.2390    8.5502   -0.8727 C   0  0  0  0  0  0  0  0  0  0  0  0
  -10.6190    8.7066    0.9030 C   0  0  0  0  0  0  0  0  0  0  0  0
  -11.6625    8.8934    1.7793 C   0  0  0  0  0  0  0  0  0  0  0  0
  -12.9756    8.9071    1.3265 C   0  0  0  0  0  0  0  0  0  0  0  0
  -19.1040    8.8450   -0.4080 C   0  0  1  0  0  0  0  0  0  0  0  0
  -23.1951    8.3436   -2.3559 C   0  0  0  0  0  0  0  0  0  0  0  0
  -24.3368    7.9297   -3.0510 C   0  0  0  0  0  0  0  0  0  0  0  0
  -12.4793    8.3761   -2.1957 F   0  0  0  0  0  0  0  0  0  0  0  0
   -9.8733    8.3493   -1.2948 F   0  0  0  0  0  0  0  0  0  0  0  0
  -11.3870    9.0632    3.0871 F   0  0  0  0  0  0  0  0  0  0  0  0
  -13.9758    9.0974    2.2448 F   0  0  0  0  0  0  0  0  0  0  0  0
  -16.7478    8.3488   -0.8954 N   0  0  0  0  0  0  0  0  0  0  0  0
   -9.2616    8.6937    1.3795 N   0  0  0  0  0  0  0  0  0  0  0  0
  -15.0946    9.6516   -1.3779 N   0  0  0  0  0  0  0  0  0  0  0  0
  -16.3463    9.4025   -1.6096 N   0  0  0  0  0  0  0  0  0  0  0  0
  -20.5492    7.0313    0.1121 O   0  0  0  0  0  0  0  0  0  0  0  0
  -21.2034    4.2814   -0.2789 O   0  0  0  0  0  0  0  0  0  0  0  0
  -18.1875    6.8120    1.1331 O   0  0  0  0  0  0  0  0  0  0  0  0
  -19.0612   10.0671   -1.0431 O   0  0  0  0  0  0  0  0  0  0  0  0
  -21.8201    9.2807   -0.1522 S   0  0  0  0  0  0  0  0  0  0  0  0
 10  1  1  0
  1 31  1  6
  2 13  2  0
 14  2  1  0
  2 28  1  0
 15  3  2  0
  3 16  1  0
  3 23  1  0
  4  5  1  6
  6  5  2  0
  5 21  1  0
  7  6  1  0
  8  7  2  0
  8 20  1  0
 34  8  1  0
 19  9  1  0
  9 30  1  0
  9 34  1  1
 11 10  1  0
 10 30  1  1
 12 11  1  0
 11 32  1  1
 12 19  1  0
 12 26  1  1
 13 26  1  0
 14 15  1  0
 14 18  2  0
 15 22  1  0
 16 17  2  0
 16 27  1  0
 17 18  1  0
 17 24  1  0
 18 25  1  0
 19 33  1  6
 20 21  2  0
 26 29  1  0
 28 29  2  0
M  END
$$$$
