
     RDKit          3D

 34 37  0  0  0  0  0  0  0  0999 V2000
  -19.0817    5.8951    1.1305 C   0  0  0  0  0  0  0  0  0  0  0  0
  -15.0586    8.5197   -0.2973 C   0  0  0  0  0  0  0  0  0  0  0  0
  -11.9434    8.9113    1.7741 C   0  0  0  0  0  0  0  0  0  0  0  0
  -26.8299    8.3068   -2.8862 C   0  0  0  0  0  0  0  0  0  0  0  0
  -25.3890    8.5595   -2.6090 C   0  0  0  0  0  0  0  0  0  0  0  0
  -24.5192    7.5432   -2.3409 C   0  0  0  0  0  0  0  0  0  0  0  0
  -23.1739    7.8350   -2.0874 C   0  0  0  0  0  0  0  0  0  0  0  0
  -22.7190    9.1283   -2.1051 C   0  0  0  0  0  0  0  0  0  0  0  0
  -20.0301    7.9537   -1.6573 C   0  0  1  0  0  0  0  0  0  0  0  0
  -19.4356    6.3258   -0.2646 C   0  0  2  0  0  0  0  0  0  0  0  0
  -18.4697    5.8887   -1.3166 C   0  0  1  0  0  0  0  0  0  0  0  0
  -17.8307    7.0039   -2.0904 C   0  0  1  0  0  0  0  0  0  0  0  0
  -15.5843    7.6352   -1.2380 C   0  0  0  0  0  0  0  0  0  0  0  0
  -13.6403    8.7197    0.0377 C   0  0  0  0  0  0  0  0  0  0  0  0
  -13.2455    8.7321    1.3588 C   0  0  0  0  0  0  0  0  0  0  0  0
  -10.9886    9.0885    0.7690 C   0  0  0  0  0  0  0  0  0  0  0  0
  -11.3583    9.0801   -0.5598 C   0  0  0  0  0  0  0  0  0  0  0  0
  -12.6848    8.8952   -0.9154 C   0  0  0  0  0  0  0  0  0  0  0  0
  -18.9299    7.8698   -2.6656 C   0  0  1  0  0  0  0  0  0  0  0  0
  -23.5803   10.1606   -2.3728 C   0  0  0  0  0  0  0  0  0  0  0  0
  -24.9177    9.8606   -2.6239 C   0  0  0  0  0  0  0  0  0  0  0  0
  -14.1873    8.5582    2.3158 F   0  0  0  0  0  0  0  0  0  0  0  0
  -11.5869    8.9186    3.0942 F   0  0  0  0  0  0  0  0  0  0  0  0
  -10.3867    9.2566   -1.4975 F   0  0  0  0  0  0  0  0  0  0  0  0
  -13.0506    8.8857   -2.2182 F   0  0  0  0  0  0  0  0  0  0  0  0
  -16.9228    7.7546   -1.2457 N   0  0  0  0  0  0  0  0  0  0  0  0
   -9.6498    9.2721    1.1978 N   0  0  0  0  0  0  0  0  0  0  0  0
  -16.1276    9.1396    0.2249 N   0  0  0  0  0  0  0  0  0  0  0  0
  -17.2278    8.6591   -0.3638 N   0  0  0  0  0  0  0  0  0  0  0  0
  -19.5942    7.7167   -0.3563 O   0  0  0  0  0  0  0  0  0  0  0  0
  -20.1450    5.4478    1.8755 O   0  0  0  0  0  0  0  0  0  0  0  0
  -17.5067    4.9925   -0.8102 O   0  0  0  0  0  0  0  0  0  0  0  0
  -19.3546    7.2490   -3.8440 O   0  0  0  0  0  0  0  0  0  0  0  0
  -21.0143    9.4726   -1.7815 S   0  0  0  0  0  0  0  0  0  0  0  0
 10  1  1  1
  1 31  1  0
  2 13  2  0
 14  2  1  0
  2 28  1  0
 15  3  2  0
  3 16  1  0
  3 23  1  0
  5  4  1  0
  6  5  2  0
  5 21  1  0
  7  6  1  0
  8  7  2  0
  8 20  1  0
 34  8  1  0
 19  9  1  0
  9 30  1  0
  9 34  1  1
 11 10  1  0
 10 30  1  0
 12 11  1  0
 11 32  1  1
 12 19  1  0
 12 26  1  1
 13 26  1  0
 14 15  1  0
 14 18  2  0
 15 22  1  0
 16 17  2  0
 16 27  1  0
 17 18  1  0
 17 24  1  0
 18 25  1  0
 19 33  1  6
 20 21  2  0
 26 29  1  0
 28 29  2  0
M  END
$$$$
