
     RDKit          3D

 42 44  0  0  0  0  0  0  0  0999 V2000
   -5.0162  -19.9561   40.6472 C   0  0  2  0  0  0  0  0  0  0  0  0
   -6.2115  -20.8573   40.3734 C   0  0  0  0  0  0  0  0  0  0  0  0
    1.7094  -17.6244   33.0701 C   0  0  0  0  0  0  0  0  0  0  0  0
    2.4982  -17.0063   32.1156 C   0  0  0  0  0  0  0  0  0  0  0  0
    3.9526  -16.9667   31.8670 C   0  0  0  0  0  0  0  0  0  0  0  0
    3.5240  -18.9375   30.4835 C   0  0  0  0  0  0  0  0  0  0  0  0
    2.9701  -20.6083   32.3620 C   0  0  0  0  0  0  0  0  0  0  0  0
    2.9929  -21.3406   34.7162 C   0  0  0  0  0  0  0  0  0  0  0  0
   -1.6121  -17.0736   34.2221 O   0  0  0  0  0  0  0  0  0  0  0  0
   -0.7711  -18.0023   33.8187 C   0  0  0  0  0  0  0  0  0  0  0  0
   -1.0561  -19.3501   34.2255 N   0  0  0  0  0  0  0  0  0  0  0  0
   -1.4415  -20.4763   33.4535 C   0  0  1  0  0  0  0  0  0  0  0  0
   -0.4969  -21.6785   33.5267 C   0  0  0  0  0  0  0  0  0  0  0  0
   -2.7932  -21.0511   33.9063 C   0  0  0  0  0  0  0  0  0  0  0  0
   -2.9597  -21.0730   35.3053 N   0  0  0  0  0  4  0  0  0  0  0  0
   -3.9366  -20.1761   35.8547 C   0  0  2  0  0  0  0  0  0  0  0  0
   -4.0821  -18.9054   35.0524 C   0  0  1  0  0  0  0  0  0  0  0  0
   -4.5594  -19.1388   33.7772 O   0  0  0  0  0  0  0  0  0  0  0  0
   -5.0171  -17.9235   35.7306 C   0  0  0  0  0  0  0  0  0  0  0  0
   -3.6415  -19.8109   37.2817 C   0  0  0  0  0  0  0  0  0  0  0  0
   -4.1907  -20.4772   38.3839 N   0  0  0  0  0  0  0  0  0  0  0  0
   -3.8972  -20.3263   39.7617 C   0  0  0  0  0  0  0  0  0  0  0  0
   -4.7471  -19.8838   42.1009 C   0  0  0  0  0  0  0  0  0  0  0  0
   -2.8572  -18.8504   37.4740 O   0  0  0  0  0  0  0  0  0  0  0  0
    0.3386  -17.4603   32.9951 C   0  0  0  0  0  0  0  0  0  0  0  0
    4.3235  -17.6793   30.5460 C   0  0  0  0  0  0  0  0  0  0  0  0
    3.9229  -20.0557   31.3656 C   0  0  0  0  0  0  0  0  0  0  0  0
    3.6167  -20.8559   33.5959 C   0  0  0  0  0  0  0  0  0  0  0  0
    1.6579  -21.5786   34.5650 C   0  0  0  0  0  0  0  0  0  0  0  0
    0.9486  -21.3534   33.3584 C   0  0  0  0  0  0  0  0  0  0  0  0
    1.6082  -20.8721   32.2647 C   0  0  0  0  0  0  0  0  0  0  0  0
    1.8791  -16.2277   31.0968 C   0  0  0  0  0  0  0  0  0  0  0  0
    0.5324  -16.0466   30.9985 C   0  0  0  0  0  0  0  0  0  0  0  0
   -0.0667  -15.2562   29.9729 N   0  0  0  0  0  0  0  0  0  0  0  0
    0.5574  -14.0414   29.5479 C   0  0  0  0  0  0  0  0  0  0  0  0
    0.5102  -12.9788   30.6324 C   0  0  0  0  0  0  0  0  0  0  0  0
    1.1096  -11.7153   30.0883 C   0  0  0  0  0  0  0  0  0  0  0  0
   -1.5293  -15.7788   29.2363 S   0  0  1  0  0  6  0  0  0  0  0  0
   -2.2312  -14.6483   28.5651 O   0  0  0  0  0  0  0  0  0  0  0  0
   -1.2328  -17.0350   28.0055 C   0  0  0  0  0  0  0  0  0  0  0  0
   -2.4837  -16.2976   30.3048 O   0  0  0  0  0  0  0  0  0  0  0  0
   -0.2238  -16.6694   31.9565 C   0  0  0  0  0  0  0  0  0  0  0  0
  1  2  1  1
 22  1  1  0
  1 23  1  0
  3  4  2  0
 25  3  1  0
  4  5  1  0
  4 32  1  0
  5 26  1  0
 26  6  1  0
  6 27  1  0
 27  7  1  0
  7 28  2  0
  7 31  1  0
 28  8  1  0
  8 29  2  0
 10  9  2  0
 11 10  1  0
 10 25  1  0
 12 11  1  0
 12 13  1  0
 12 14  1  1
 13 30  1  0
 15 14  1  0
 16 15  1  6
 16 17  1  0
 20 16  1  0
 17 18  1  0
 17 19  1  1
 21 20  1  0
 20 24  2  0
 21 22  1  0
 25 42  2  0
 29 30  1  0
 30 31  2  0
 32 33  2  0
 33 34  1  0
 33 42  1  0
 34 35  1  0
 34 38  1  0
 35 36  1  0
 36 37  1  0
 38 39  2  0
 38 40  1  6
 38 41  2  0
M  CHG  1  15   1
M  END
$$$$
