
     RDKit          3D

 42 44  0  0  0  0  0  0  0  0999 V2000
   -5.6988  -22.5535   39.1608 C   0  0  2  0  0  0  0  0  0  0  0  0
   -6.5521  -21.5550   39.9293 C   0  0  0  0  0  0  0  0  0  0  0  0
   -0.8078  -18.0917   30.7188 C   0  0  0  0  0  0  0  0  0  0  0  0
    0.0649  -17.7915   29.6875 C   0  0  0  0  0  0  0  0  0  0  0  0
   -0.1163  -17.2575   28.3235 C   0  0  0  0  0  0  0  0  0  0  0  0
    0.1415  -15.0786   29.4042 C   0  0  0  0  0  0  0  0  0  0  0  0
   -2.0825  -15.0307   30.6997 C   0  0  0  0  0  0  0  0  0  0  0  0
   -4.3832  -15.8075   31.1272 C   0  0  0  0  0  0  0  0  0  0  0  0
   -0.5489  -20.1372   33.6191 O   0  0  0  0  0  0  0  0  0  0  0  0
   -0.9206  -18.9496   33.1901 C   0  0  0  0  0  0  0  0  0  0  0  0
   -1.8531  -18.2305   34.0126 N   0  0  0  0  0  0  0  0  0  0  0  0
   -1.6819  -17.0368   34.7601 C   0  0  1  0  0  0  0  0  0  0  0  0
   -2.6101  -15.8817   34.3766 C   0  0  0  0  0  0  0  0  0  0  0  0
   -1.9660  -17.2469   36.2560 C   0  0  0  0  0  0  0  0  0  0  0  0
   -1.7885  -18.5772   36.6852 N   0  0  0  0  0  4  0  0  0  0  0  0
   -2.8639  -19.4909   36.4218 C   0  0  2  0  0  0  0  0  0  0  0  0
   -4.2143  -18.8160   36.4015 C   0  0  1  0  0  0  0  0  0  0  0  0
   -4.1322  -17.4830   36.0481 O   0  0  0  0  0  0  0  0  0  0  0  0
   -5.1630  -19.4994   35.4365 C   0  0  0  0  0  0  0  0  0  0  0  0
   -2.9087  -20.6233   37.4080 C   0  0  0  0  0  0  0  0  0  0  0  0
   -4.0929  -21.2396   37.8303 N   0  0  0  0  0  0  0  0  0  0  0  0
   -4.3359  -22.0187   38.9884 C   0  0  0  0  0  0  0  0  0  0  0  0
   -6.4128  -23.0180   37.9503 C   0  0  0  0  0  0  0  0  0  0  0  0
   -1.8117  -21.0228   37.8679 O   0  0  0  0  0  0  0  0  0  0  0  0
   -0.2826  -18.5728   31.9039 C   0  0  0  0  0  0  0  0  0  0  0  0
    0.5019  -15.8479   28.1776 C   0  0  0  0  0  0  0  0  0  0  0  0
   -1.2541  -14.6087   29.5414 C   0  0  0  0  0  0  0  0  0  0  0  0
   -3.3962  -15.3582   30.2887 C   0  0  0  0  0  0  0  0  0  0  0  0
   -4.0082  -15.9261   32.4338 C   0  0  0  0  0  0  0  0  0  0  0  0
   -2.7106  -15.6153   32.9129 C   0  0  0  0  0  0  0  0  0  0  0  0
   -1.7572  -15.1681   32.0447 C   0  0  0  0  0  0  0  0  0  0  0  0
    1.4625  -17.9866   29.8774 C   0  0  0  0  0  0  0  0  0  0  0  0
    2.0087  -18.4604   31.0320 C   0  0  0  0  0  0  0  0  0  0  0  0
    3.4122  -18.6548   31.1984 N   0  0  0  0  0  0  0  0  0  0  0  0
    4.0925  -18.0547   32.3043 C   0  0  0  0  0  0  0  0  0  0  0  0
    4.7384  -16.7361   31.9154 C   0  0  0  0  0  0  0  0  0  0  0  0
    5.4700  -16.1934   33.1079 C   0  0  0  0  0  0  0  0  0  0  0  0
    4.2785  -19.6283   30.0774 S   0  0  1  0  0  6  0  0  0  0  0  0
    5.2937  -20.4743   30.7667 O   0  0  0  0  0  0  0  0  0  0  0  0
    3.1916  -20.7184   29.1768 C   0  0  0  0  0  0  0  0  0  0  0  0
    5.0517  -18.7357   29.1146 O   0  0  0  0  0  0  0  0  0  0  0  0
    1.1216  -18.7495   32.0356 C   0  0  0  0  0  0  0  0  0  0  0  0
  1  2  1  6
 22  1  1  0
  1 23  1  0
  3  4  2  0
 25  3  1  0
  4  5  1  0
  4 32  1  0
  5 26  1  0
 26  6  1  0
  6 27  1  0
 27  7  1  0
  7 28  2  0
  7 31  1  0
 28  8  1  0
  8 29  2  0
 10  9  2  0
 11 10  1  0
 10 25  1  0
 12 11  1  0
 12 13  1  0
 12 14  1  1
 13 30  1  0
 15 14  1  0
 16 15  1  1
 16 17  1  0
 20 16  1  0
 17 18  1  0
 17 19  1  6
 21 20  1  0
 20 24  2  0
 21 22  1  0
 25 42  2  0
 29 30  1  0
 30 31  2  0
 32 33  2  0
 33 34  1  0
 33 42  1  0
 34 35  1  0
 34 38  1  0
 35 36  1  0
 36 37  1  0
 38 39  2  0
 38 40  1  6
 38 41  2  0
M  CHG  1  15   1
M  END
$$$$
