
     RDKit          3D

 42 44  0  0  0  0  0  0  0  0999 V2000
   -5.8544  -20.5738   40.4964 C   0  0  2  0  0  0  0  0  0  0  0  0
   -5.5836  -19.1991   41.0901 C   0  0  0  0  0  0  0  0  0  0  0  0
   -0.8543  -17.9728   30.8431 C   0  0  0  0  0  0  0  0  0  0  0  0
    0.0123  -17.3589   29.9557 C   0  0  0  0  0  0  0  0  0  0  0  0
   -0.1780  -16.4297   28.8248 C   0  0  0  0  0  0  0  0  0  0  0  0
    0.0631  -14.6915   30.5283 C   0  0  0  0  0  0  0  0  0  0  0  0
   -2.1572  -15.0695   31.7750 C   0  0  0  0  0  0  0  0  0  0  0  0
   -4.4493  -15.9629   31.9406 C   0  0  0  0  0  0  0  0  0  0  0  0
   -0.5676  -20.8147   32.9653 O   0  0  0  0  0  0  0  0  0  0  0  0
   -0.9516  -19.5563   32.9260 C   0  0  0  0  0  0  0  0  0  0  0  0
   -1.8881  -19.1371   33.9313 N   0  0  0  0  0  0  0  0  0  0  0  0
   -1.7255  -18.2327   35.0123 C   0  0  1  0  0  0  0  0  0  0  0  0
   -2.6655  -17.0247   35.0063 C   0  0  0  0  0  0  0  0  0  0  0  0
   -2.0030  -18.8994   36.3692 C   0  0  0  0  0  0  0  0  0  0  0  0
   -1.5060  -20.2143   36.4667 N   0  0  0  0  0  4  0  0  0  0  0  0
   -2.4088  -21.2116   36.9675 C   0  0  2  0  0  0  0  0  0  0  0  0
   -2.5965  -22.3650   36.0116 C   0  0  1  0  0  0  0  0  0  0  0  0
   -1.4722  -23.1627   35.9207 O   0  0  0  0  0  0  0  0  0  0  0  0
   -3.7624  -23.2430   36.4216 C   0  0  0  0  0  0  0  0  0  0  0  0
   -3.7584  -20.6452   37.3062 C   0  0  0  0  0  0  0  0  0  0  0  0
   -4.2704  -20.5823   38.6079 N   0  0  0  0  0  0  0  0  0  0  0  0
   -5.6187  -20.5458   39.0414 C   0  0  0  0  0  0  0  0  0  0  0  0
   -7.1563  -21.0934   40.9716 C   0  0  0  0  0  0  0  0  0  0  0  0
   -4.4500  -20.2110   36.3535 O   0  0  0  0  0  0  0  0  0  0  0  0
   -0.3210  -18.7928   31.8203 C   0  0  0  0  0  0  0  0  0  0  0  0
    0.4267  -15.0386   29.1235 C   0  0  0  0  0  0  0  0  0  0  0  0
   -1.3364  -14.3009   30.8048 C   0  0  0  0  0  0  0  0  0  0  0  0
   -3.4691  -15.2661   31.2828 C   0  0  0  0  0  0  0  0  0  0  0  0
   -4.0691  -16.4775   33.1458 C   0  0  0  0  0  0  0  0  0  0  0  0
   -2.7730  -16.3181   33.6976 C   0  0  0  0  0  0  0  0  0  0  0  0
   -1.8264  -15.6144   33.0109 C   0  0  0  0  0  0  0  0  0  0  0  0
    1.4122  -17.5897   30.0755 C   0  0  0  0  0  0  0  0  0  0  0  0
    1.9663  -18.3932   31.0260 C   0  0  0  0  0  0  0  0  0  0  0  0
    3.3721  -18.6160   31.1237 N   0  0  0  0  0  0  0  0  0  0  0  0
    4.1169  -18.0340   32.1973 C   0  0  0  0  0  0  0  0  0  0  0  0
    3.9079  -16.5313   32.2732 C   0  0  0  0  0  0  0  0  0  0  0  0
    4.8375  -15.9724   33.3102 C   0  0  0  0  0  0  0  0  0  0  0  0
    4.1636  -19.6019   29.9591 S   0  0  1  0  0  6  0  0  0  0  0  0
    4.3507  -20.9916   30.4640 O   0  0  0  0  0  0  0  0  0  0  0  0
    3.2326  -19.7017   28.4411 C   0  0  0  0  0  0  0  0  0  0  0  0
    5.5603  -19.0555   29.6900 O   0  0  0  0  0  0  0  0  0  0  0  0
    1.0851  -18.9880   31.8904 C   0  0  0  0  0  0  0  0  0  0  0  0
  1  2  1  6
 22  1  1  0
  1 23  1  0
  3  4  2  0
 25  3  1  0
  4  5  1  0
  4 32  1  0
  5 26  1  0
 26  6  1  0
  6 27  1  0
 27  7  1  0
  7 28  2  0
  7 31  1  0
 28  8  1  0
  8 29  2  0
 10  9  2  0
 11 10  1  0
 10 25  1  0
 12 11  1  0
 12 13  1  0
 12 14  1  1
 13 30  1  0
 15 14  1  0
 16 15  1  6
 16 17  1  0
 20 16  1  0
 17 18  1  0
 17 19  1  1
 21 20  1  0
 20 24  2  0
 21 22  1  0
 25 42  2  0
 29 30  1  0
 30 31  2  0
 32 33  2  0
 33 34  1  0
 33 42  1  0
 34 35  1  0
 34 38  1  0
 35 36  1  0
 36 37  1  0
 38 39  2  0
 38 40  1  6
 38 41  2  0
M  CHG  1  15   1
M  END
$$$$
