
     RDKit          3D

 42 44  0  0  0  0  0  0  0  0999 V2000
   -2.7583  -23.4308   39.8738 C   0  0  2  0  0  0  0  0  0  0  0  0
   -1.3389  -23.2988   40.4063 C   0  0  0  0  0  0  0  0  0  0  0  0
    0.3493  -17.7273   30.2981 C   0  0  0  0  0  0  0  0  0  0  0  0
    1.4963  -17.0787   29.8749 C   0  0  0  0  0  0  0  0  0  0  0  0
    1.7881  -16.1419   28.7722 C   0  0  0  0  0  0  0  0  0  0  0  0
    1.2115  -14.4179   30.4084 C   0  0  0  0  0  0  0  0  0  0  0  0
   -1.3173  -14.8733   30.5662 C   0  0  0  0  0  0  0  0  0  0  0  0
   -3.4250  -15.8330   29.7201 C   0  0  0  0  0  0  0  0  0  0  0  0
   -0.2281  -20.5850   32.3384 O   0  0  0  0  0  0  0  0  0  0  0  0
   -0.5952  -19.3376   32.1341 C   0  0  0  0  0  0  0  0  0  0  0  0
   -1.8878  -18.9569   32.6315 N   0  0  0  0  0  0  0  0  0  0  0  0
   -2.2390  -18.0612   33.6742 C   0  0  1  0  0  0  0  0  0  0  0  0
   -3.1195  -16.8802   33.2582 C   0  0  0  0  0  0  0  0  0  0  0  0
   -3.0581  -18.7515   34.7765 C   0  0  0  0  0  0  0  0  0  0  0  0
   -2.4104  -19.8625   35.3523 N   0  0  0  0  0  4  0  0  0  0  0  0
   -3.2453  -20.8347   35.9991 C   0  0  2  0  0  0  0  0  0  0  0  0
   -4.7055  -20.4506   35.9917 C   0  0  1  0  0  0  0  0  0  0  0  0
   -5.5234  -21.4797   36.4165 O   0  0  0  0  0  0  0  0  0  0  0  0
   -4.9684  -19.2473   36.8757 C   0  0  0  0  0  0  0  0  0  0  0  0
   -2.8261  -21.0977   37.4175 C   0  0  0  0  0  0  0  0  0  0  0  0
   -3.6564  -21.6915   38.3759 N   0  0  0  0  0  0  0  0  0  0  0  0
   -3.3541  -22.0935   39.7003 C   0  0  0  0  0  0  0  0  0  0  0  0
   -3.5169  -24.4231   40.6679 C   0  0  0  0  0  0  0  0  0  0  0  0
   -1.6625  -20.7569   37.7408 O   0  0  0  0  0  0  0  0  0  0  0  0
    0.4296  -18.5435   31.4113 C   0  0  0  0  0  0  0  0  0  0  0  0
    2.1600  -14.7379   29.3019 C   0  0  0  0  0  0  0  0  0  0  0  0
   -0.1803  -14.0703   30.0482 C   0  0  0  0  0  0  0  0  0  0  0  0
   -2.2782  -15.1009   29.5529 C   0  0  0  0  0  0  0  0  0  0  0  0
   -3.5909  -16.3509   30.9716 C   0  0  0  0  0  0  0  0  0  0  0  0
   -2.6690  -16.1615   32.0318 C   0  0  0  0  0  0  0  0  0  0  0  0
   -1.5401  -15.4232   31.8239 C   0  0  0  0  0  0  0  0  0  0  0  0
    2.7113  -17.2713   30.5918 C   0  0  0  0  0  0  0  0  0  0  0  0
    2.8215  -18.0700   31.6900 C   0  0  0  0  0  0  0  0  0  0  0  0
    4.0512  -18.2541   32.3896 N   0  0  0  0  0  0  0  0  0  0  0  0
    4.6969  -17.1384   33.0093 C   0  0  0  0  0  0  0  0  0  0  0  0
    3.7290  -15.9916   33.2448 C   0  0  0  0  0  0  0  0  0  0  0  0
    3.1553  -16.1276   34.6247 C   0  0  0  0  0  0  0  0  0  0  0  0
    4.7431  -19.8237   32.5021 S   0  0  1  0  0  6  0  0  0  0  0  0
    4.0188  -20.7977   31.6372 O   0  0  0  0  0  0  0  0  0  0  0  0
    6.4539  -19.8250   31.9981 C   0  0  0  0  0  0  0  0  0  0  0  0
    4.6099  -20.3408   33.9291 O   0  0  0  0  0  0  0  0  0  0  0  0
    1.6708  -18.6997   32.0862 C   0  0  0  0  0  0  0  0  0  0  0  0
  1  2  1  1
 22  1  1  0
  1 23  1  0
  3  4  2  0
 25  3  1  0
  4  5  1  0
  4 32  1  0
  5 26  1  0
 26  6  1  0
  6 27  1  0
 27  7  1  0
  7 28  2  0
  7 31  1  0
 28  8  1  0
  8 29  2  0
 10  9  2  0
 11 10  1  0
 10 25  1  0
 12 11  1  0
 12 13  1  0
 12 14  1  1
 13 30  1  0
 15 14  1  0
 16 15  1  1
 16 17  1  0
 20 16  1  0
 17 18  1  0
 17 19  1  1
 21 20  1  0
 20 24  2  0
 21 22  1  0
 25 42  2  0
 29 30  1  0
 30 31  2  0
 32 33  2  0
 33 34  1  0
 33 42  1  0
 34 35  1  0
 34 38  1  0
 35 36  1  0
 36 37  1  0
 38 39  2  0
 38 40  1  6
 38 41  2  0
M  CHG  1  15   1
M  END
$$$$
