
     RDKit          3D

 42 44  0  0  0  0  0  0  0  0999 V2000
   -6.4444  -18.2137   37.8437 C   0  0  2  0  0  0  0  0  0  0  0  0
   -5.4304  -17.9325   38.9429 C   0  0  0  0  0  0  0  0  0  0  0  0
   -0.1163  -17.6337   30.5847 C   0  0  0  0  0  0  0  0  0  0  0  0
    0.6486  -16.6783   29.9386 C   0  0  0  0  0  0  0  0  0  0  0  0
    0.3224  -15.4485   29.1904 C   0  0  0  0  0  0  0  0  0  0  0  0
    0.5028  -14.3625   31.3743 C   0  0  0  0  0  0  0  0  0  0  0  0
   -1.6106  -15.3477   32.4652 C   0  0  0  0  0  0  0  0  0  0  0  0
   -3.8073  -16.4631   32.3663 C   0  0  0  0  0  0  0  0  0  0  0  0
    0.5186  -20.9784   31.6206 O   0  0  0  0  0  0  0  0  0  0  0  0
    0.0280  -19.8223   32.0148 C   0  0  0  0  0  0  0  0  0  0  0  0
   -0.8877  -19.8548   33.1210 N   0  0  0  0  0  0  0  0  0  0  0  0
   -0.7470  -19.3510   34.4399 C   0  0  1  0  0  0  0  0  0  0  0  0
   -1.7849  -18.3073   34.8596 C   0  0  0  0  0  0  0  0  0  0  0  0
   -0.8969  -20.4553   35.4985 C   0  0  0  0  0  0  0  0  0  0  0  0
   -1.5138  -20.0199   36.6882 N   0  0  0  0  0  4  0  0  0  0  0  0
   -2.7671  -20.6314   37.0284 C   0  0  2  0  0  0  0  0  0  0  0  0
   -2.6801  -22.1362   37.1162 C   0  0  1  0  0  0  0  0  0  0  0  0
   -3.8297  -22.7578   36.6683 O   0  0  0  0  0  0  0  0  0  0  0  0
   -1.5127  -22.6735   36.3119 C   0  0  0  0  0  0  0  0  0  0  0  0
   -3.8617  -20.2701   36.0649 C   0  0  0  0  0  0  0  0  0  0  0  0
   -4.8346  -19.2968   36.3235 N   0  0  0  0  0  0  0  0  0  0  0  0
   -6.0317  -19.4014   37.0740 C   0  0  0  0  0  0  0  0  0  0  0  0
   -6.7436  -16.9760   37.0891 C   0  0  0  0  0  0  0  0  0  0  0  0
   -3.8880  -20.8887   34.9735 O   0  0  0  0  0  0  0  0  0  0  0  0
    0.5340  -18.6766   31.2182 C   0  0  0  0  0  0  0  0  0  0  0  0
    0.8218  -14.1847   29.9276 C   0  0  0  0  0  0  0  0  0  0  0  0
   -0.9087  -14.2240   31.7940 C   0  0  0  0  0  0  0  0  0  0  0  0
   -2.9247  -15.4953   31.9619 C   0  0  0  0  0  0  0  0  0  0  0  0
   -3.3235  -17.3103   33.3202 C   0  0  0  0  0  0  0  0  0  0  0  0
   -2.0189  -17.2190   33.8674 C   0  0  0  0  0  0  0  0  0  0  0  0
   -1.1718  -16.2385   33.4388 C   0  0  0  0  0  0  0  0  0  0  0  0
    2.0673  -16.7989   29.9457 C   0  0  0  0  0  0  0  0  0  0  0  0
    2.7355  -17.8154   30.5591 C   0  0  0  0  0  0  0  0  0  0  0  0
    4.1583  -17.9206   30.5480 N   0  0  0  0  0  0  0  0  0  0  0  0
    4.9593  -16.8593   31.0752 C   0  0  0  0  0  0  0  0  0  0  0  0
    4.5470  -16.4975   32.4918 C   0  0  0  0  0  0  0  0  0  0  0  0
    5.5472  -17.0846   33.4440 C   0  0  0  0  0  0  0  0  0  0  0  0
    4.9053  -19.3346   29.9177 S   0  0  1  0  0  6  0  0  0  0  0  0
    6.3827  -19.2983   30.1112 O   0  0  0  0  0  0  0  0  0  0  0  0
    4.2947  -20.8100   30.7122 C   0  0  0  0  0  0  0  0  0  0  0  0
    4.6751  -19.4080   28.4133 O   0  0  0  0  0  0  0  0  0  0  0  0
    1.9534  -18.7468   31.1904 C   0  0  0  0  0  0  0  0  0  0  0  0
  1  2  1  1
 22  1  1  0
  1 23  1  0
  3  4  2  0
 25  3  1  0
  4  5  1  0
  4 32  1  0
  5 26  1  0
 26  6  1  0
  6 27  1  0
 27  7  1  0
  7 28  2  0
  7 31  1  0
 28  8  1  0
  8 29  2  0
 10  9  2  0
 11 10  1  0
 10 25  1  0
 12 11  1  0
 12 13  1  0
 12 14  1  1
 13 30  1  0
 15 14  1  0
 16 15  1  6
 16 17  1  0
 20 16  1  0
 17 18  1  0
 17 19  1  6
 21 20  1  0
 20 24  2  0
 21 22  1  0
 25 42  2  0
 29 30  1  0
 30 31  2  0
 32 33  2  0
 33 34  1  0
 33 42  1  0
 34 35  1  0
 34 38  1  0
 35 36  1  0
 36 37  1  0
 38 39  2  0
 38 40  1  1
 38 41  2  0
M  CHG  1  15   1
M  END
$$$$
