
     RDKit          3D

 42 44  0  0  0  0  0  0  0  0999 V2000
   -5.6636  -19.6469   39.9237 C   0  0  2  0  0  0  0  0  0  0  0  0
   -6.3536  -20.7313   39.1091 C   0  0  0  0  0  0  0  0  0  0  0  0
   -0.7976  -17.4863   30.7346 C   0  0  0  0  0  0  0  0  0  0  0  0
    0.3352  -16.8605   30.2441 C   0  0  0  0  0  0  0  0  0  0  0  0
    0.5545  -15.7028   29.3552 C   0  0  0  0  0  0  0  0  0  0  0  0
    0.5335  -14.4125   31.4328 C   0  0  0  0  0  0  0  0  0  0  0  0
   -1.9642  -14.6550   32.0065 C   0  0  0  0  0  0  0  0  0  0  0  0
   -4.3048  -15.1632   31.4208 C   0  0  0  0  0  0  0  0  0  0  0  0
   -1.4002  -20.7064   32.1241 O   0  0  0  0  0  0  0  0  0  0  0  0
   -1.6163  -19.4198   32.2989 C   0  0  0  0  0  0  0  0  0  0  0  0
   -2.7306  -19.0611   33.1313 N   0  0  0  0  0  0  0  0  0  0  0  0
   -2.7572  -18.4356   34.4045 C   0  0  1  0  0  0  0  0  0  0  0  0
   -3.5204  -17.1104   34.4705 C   0  0  0  0  0  0  0  0  0  0  0  0
   -3.4546  -19.3070   35.4613 C   0  0  0  0  0  0  0  0  0  0  0  0
   -3.2260  -20.6878   35.2978 N   0  0  0  0  0  4  0  0  0  0  0  0
   -3.0144  -21.4544   36.4928 C   0  0  2  0  0  0  0  0  0  0  0  0
   -3.0157  -22.9432   36.2416 C   0  0  1  0  0  0  0  0  0  0  0  0
   -1.9772  -23.3404   35.4217 O   0  0  0  0  0  0  0  0  0  0  0  0
   -2.9165  -23.7256   37.5364 C   0  0  0  0  0  0  0  0  0  0  0  0
   -4.0281  -21.1472   37.5582 C   0  0  0  0  0  0  0  0  0  0  0  0
   -3.6980  -20.6484   38.8242 N   0  0  0  0  0  0  0  0  0  0  0  0
   -4.2473  -19.5474   39.5264 C   0  0  0  0  0  0  0  0  0  0  0  0
   -5.9631  -19.8143   41.3635 C   0  0  0  0  0  0  0  0  0  0  0  0
   -5.2326  -21.3582   37.2771 O   0  0  0  0  0  0  0  0  0  0  0  0
   -0.6356  -18.5655   31.5836 C   0  0  0  0  0  0  0  0  0  0  0  0
    1.2121  -14.5237   30.1086 C   0  0  0  0  0  0  0  0  0  0  0  0
   -0.8362  -13.8554   31.4641 C   0  0  0  0  0  0  0  0  0  0  0  0
   -3.1142  -14.5231   31.1927 C   0  0  0  0  0  0  0  0  0  0  0  0
   -4.3150  -15.9682   32.5225 C   0  0  0  0  0  0  0  0  0  0  0  0
   -3.2001  -16.1453   33.3799 C   0  0  0  0  0  0  0  0  0  0  0  0
   -2.0333  -15.4872   33.1185 C   0  0  0  0  0  0  0  0  0  0  0  0
    1.6192  -17.3439   30.6248 C   0  0  0  0  0  0  0  0  0  0  0  0
    1.8100  -18.4053   31.4573 C   0  0  0  0  0  0  0  0  0  0  0  0
    3.1065  -18.8774   31.8204 N   0  0  0  0  0  0  0  0  0  0  0  0
    3.5509  -18.7790   33.1764 C   0  0  0  0  0  0  0  0  0  0  0  0
    4.6896  -17.7841   33.3214 C   0  0  0  0  0  0  0  0  0  0  0  0
    5.0944  -17.7298   34.7653 C   0  0  0  0  0  0  0  0  0  0  0  0
    4.1237  -19.5826   30.6277 S   0  0  1  0  0  6  0  0  0  0  0  0
    4.1449  -21.0683   30.7442 O   0  0  0  0  0  0  0  0  0  0  0  0
    3.5786  -19.1800   28.9780 C   0  0  0  0  0  0  0  0  0  0  0  0
    5.5594  -19.1188   30.8401 O   0  0  0  0  0  0  0  0  0  0  0  0
    0.6715  -19.0055   31.9275 C   0  0  0  0  0  0  0  0  0  0  0  0
  1  2  1  6
 22  1  1  0
  1 23  1  0
  3  4  2  0
 25  3  1  0
  4  5  1  0
  4 32  1  0
  5 26  1  0
 26  6  1  0
  6 27  1  0
 27  7  1  0
  7 28  2  0
  7 31  1  0
 28  8  1  0
  8 29  2  0
 10  9  2  0
 11 10  1  0
 10 25  1  0
 12 11  1  0
 12 13  1  0
 12 14  1  1
 13 30  1  0
 15 14  1  0
 16 15  1  6
 16 17  1  0
 20 16  1  0
 17 18  1  0
 17 19  1  1
 21 20  1  0
 20 24  2  0
 21 22  1  0
 25 42  2  0
 29 30  1  0
 30 31  2  0
 32 33  2  0
 33 34  1  0
 33 42  1  0
 34 35  1  0
 34 38  1  0
 35 36  1  0
 36 37  1  0
 38 39  2  0
 38 40  1  6
 38 41  2  0
M  CHG  1  15   1
M  END
$$$$
