
     RDKit          3D

 42 44  0  0  0  0  0  0  0  0999 V2000
   -2.2325  -20.4893   41.1106 C   0  0  2  0  0  0  0  0  0  0  0  0
   -2.1275  -18.9783   41.2574 C   0  0  0  0  0  0  0  0  0  0  0  0
   -0.5525  -17.1329   30.8986 C   0  0  0  0  0  0  0  0  0  0  0  0
    0.6739  -16.5629   30.6050 C   0  0  0  0  0  0  0  0  0  0  0  0
    1.0845  -15.3662   29.8448 C   0  0  0  0  0  0  0  0  0  0  0  0
    0.8781  -14.2259   31.9986 C   0  0  0  0  0  0  0  0  0  0  0  0
   -1.6838  -14.3163   32.2333 C   0  0  0  0  0  0  0  0  0  0  0  0
   -3.9563  -14.6022   31.3203 C   0  0  0  0  0  0  0  0  0  0  0  0
   -1.5456  -20.3865   31.9431 O   0  0  0  0  0  0  0  0  0  0  0  0
   -1.6962  -19.1025   32.1904 C   0  0  0  0  0  0  0  0  0  0  0  0
   -2.8834  -18.7186   32.9020 N   0  0  0  0  0  0  0  0  0  0  0  0
   -3.0345  -18.1831   34.2071 C   0  0  1  0  0  0  0  0  0  0  0  0
   -3.7096  -16.8113   34.2811 C   0  0  0  0  0  0  0  0  0  0  0  0
   -3.9208  -19.0702   35.0959 C   0  0  0  0  0  0  0  0  0  0  0  0
   -3.5157  -20.4192   35.1335 N   0  0  0  0  0  4  0  0  0  0  0  0
   -2.7674  -20.8382   36.2846 C   0  0  2  0  0  0  0  0  0  0  0  0
   -2.2541  -22.2532   36.1664 C   0  0  1  0  0  0  0  0  0  0  0  0
   -1.5606  -22.4659   34.9907 O   0  0  0  0  0  0  0  0  0  0  0  0
   -1.3398  -22.6113   37.3215 C   0  0  0  0  0  0  0  0  0  0  0  0
   -3.5578  -20.7197   37.5566 C   0  0  0  0  0  0  0  0  0  0  0  0
   -3.0082  -20.3107   38.7778 N   0  0  0  0  0  0  0  0  0  0  0  0
   -3.2316  -20.8237   40.0794 C   0  0  0  0  0  0  0  0  0  0  0  0
   -2.3754  -21.1278   42.4382 C   0  0  0  0  0  0  0  0  0  0  0  0
   -4.7773  -21.0099   37.4995 O   0  0  0  0  0  0  0  0  0  0  0  0
   -0.5755  -18.2779   31.6734 C   0  0  0  0  0  0  0  0  0  0  0  0
    1.7151  -14.2961   30.7654 C   0  0  0  0  0  0  0  0  0  0  0  0
   -0.4437  -13.5694   31.9016 C   0  0  0  0  0  0  0  0  0  0  0  0
   -2.7060  -14.0407   31.2946 C   0  0  0  0  0  0  0  0  0  0  0  0
   -4.1644  -15.4789   32.3450 C   0  0  0  0  0  0  0  0  0  0  0  0
   -3.1855  -15.7999   33.3189 C   0  0  0  0  0  0  0  0  0  0  0  0
   -1.9533  -15.2162   33.2588 C   0  0  0  0  0  0  0  0  0  0  0  0
    1.8619  -17.1682   31.1045 C   0  0  0  0  0  0  0  0  0  0  0  0
    1.8708  -18.2965   31.8681 C   0  0  0  0  0  0  0  0  0  0  0  0
    3.0741  -18.8904   32.3527 N   0  0  0  0  0  0  0  0  0  0  0  0
    3.4283  -18.7675   33.7330 C   0  0  0  0  0  0  0  0  0  0  0  0
    2.3542  -18.0408   34.5239 C   0  0  0  0  0  0  0  0  0  0  0  0
    3.0094  -17.3135   35.6612 C   0  0  0  0  0  0  0  0  0  0  0  0
    4.0857  -19.7704   31.2770 S   0  0  1  0  0  6  0  0  0  0  0  0
    3.9798  -19.2479   29.8852 O   0  0  0  0  0  0  0  0  0  0  0  0
    5.7999  -19.6729   31.7594 C   0  0  0  0  0  0  0  0  0  0  0  0
    3.6320  -21.2239   31.2213 O   0  0  0  0  0  0  0  0  0  0  0  0
    0.6430  -18.8393   32.1428 C   0  0  0  0  0  0  0  0  0  0  0  0
  1  2  1  1
 22  1  1  0
  1 23  1  0
  3  4  2  0
 25  3  1  0
  4  5  1  0
  4 32  1  0
  5 26  1  0
 26  6  1  0
  6 27  1  0
 27  7  1  0
  7 28  2  0
  7 31  1  0
 28  8  1  0
  8 29  2  0
 10  9  2  0
 11 10  1  0
 10 25  1  0
 12 11  1  0
 12 13  1  0
 12 14  1  1
 13 30  1  0
 15 14  1  0
 16 15  1  6
 16 17  1  0
 20 16  1  0
 17 18  1  0
 17 19  1  1
 21 20  1  0
 20 24  2  0
 21 22  1  0
 25 42  2  0
 29 30  1  0
 30 31  2  0
 32 33  2  0
 33 34  1  0
 33 42  1  0
 34 35  1  0
 34 38  1  0
 35 36  1  0
 36 37  1  0
 38 39  2  0
 38 40  1  1
 38 41  2  0
M  CHG  1  15   1
M  END
$$$$
