
     RDKit          3D

 42 44  0  0  0  0  0  0  0  0999 V2000
   -5.5970  -20.3779   40.4780 C   0  0  2  0  0  0  0  0  0  0  0  0
   -4.5206  -19.3053   40.5588 C   0  0  0  0  0  0  0  0  0  0  0  0
   -0.9525  -17.7976   30.5646 C   0  0  0  0  0  0  0  0  0  0  0  0
    0.0457  -17.1517   29.8563 C   0  0  0  0  0  0  0  0  0  0  0  0
    0.0410  -16.1114   28.8093 C   0  0  0  0  0  0  0  0  0  0  0  0
    0.1370  -14.5567   30.6949 C   0  0  0  0  0  0  0  0  0  0  0  0
   -2.2383  -14.9276   31.6153 C   0  0  0  0  0  0  0  0  0  0  0  0
   -4.5689  -15.7052   31.4080 C   0  0  0  0  0  0  0  0  0  0  0  0
   -1.0606  -20.8378   32.4108 O   0  0  0  0  0  0  0  0  0  0  0  0
   -1.3823  -19.5621   32.4508 C   0  0  0  0  0  0  0  0  0  0  0  0
   -2.4205  -19.1882   33.3704 N   0  0  0  0  0  0  0  0  0  0  0  0
   -2.3587  -18.3997   34.5482 C   0  0  1  0  0  0  0  0  0  0  0  0
   -3.2377  -17.1466   34.5478 C   0  0  0  0  0  0  0  0  0  0  0  0
   -2.8352  -19.1746   35.7872 C   0  0  0  0  0  0  0  0  0  0  0  0
   -1.8293  -19.9580   36.3871 N   0  0  0  0  0  4  0  0  0  0  0  0
   -2.2364  -21.2153   36.9475 C   0  0  2  0  0  0  0  0  0  0  0  0
   -2.0418  -22.3713   35.9960 C   0  0  1  0  0  0  0  0  0  0  0  0
   -0.8864  -22.2500   35.2485 O   0  0  0  0  0  0  0  0  0  0  0  0
   -1.9866  -23.6949   36.7331 C   0  0  0  0  0  0  0  0  0  0  0  0
   -3.6685  -21.2039   37.4014 C   0  0  0  0  0  0  0  0  0  0  0  0
   -4.0575  -21.2187   38.7464 N   0  0  0  0  0  0  0  0  0  0  0  0
   -5.3597  -21.2375   39.3040 C   0  0  0  0  0  0  0  0  0  0  0  0
   -6.9398  -19.7732   40.6265 C   0  0  0  0  0  0  0  0  0  0  0  0
   -4.5496  -21.1815   36.5083 O   0  0  0  0  0  0  0  0  0  0  0  0
   -0.5838  -18.7339   31.5129 C   0  0  0  0  0  0  0  0  0  0  0  0
    0.6617  -14.7898   29.3177 C   0  0  0  0  0  0  0  0  0  0  0  0
   -1.2684  -14.1175   30.8351 C   0  0  0  0  0  0  0  0  0  0  0  0
   -3.4839  -15.0046   30.9486 C   0  0  0  0  0  0  0  0  0  0  0  0
   -4.3679  -16.3508   32.5932 C   0  0  0  0  0  0  0  0  0  0  0  0
   -3.1472  -16.3155   33.3131 C   0  0  0  0  0  0  0  0  0  0  0  0
   -2.0915  -15.6035   32.8218 C   0  0  0  0  0  0  0  0  0  0  0  0
    1.4077  -17.4693   30.1234 C   0  0  0  0  0  0  0  0  0  0  0  0
    1.8012  -18.3878   31.0495 C   0  0  0  0  0  0  0  0  0  0  0  0
    3.1723  -18.6957   31.2962 N   0  0  0  0  0  0  0  0  0  0  0  0
    3.7539  -18.4046   32.5702 C   0  0  0  0  0  0  0  0  0  0  0  0
    3.8570  -19.6487   33.4357 C   0  0  0  0  0  0  0  0  0  0  0  0
    4.5058  -19.2727   34.7355 C   0  0  0  0  0  0  0  0  0  0  0  0
    4.1165  -19.4354   30.0650 S   0  0  1  0  0  6  0  0  0  0  0  0
    5.1570  -20.3308   30.6454 O   0  0  0  0  0  0  0  0  0  0  0  0
    3.1115  -20.4188   28.9678 C   0  0  0  0  0  0  0  0  0  0  0  0
    4.8657  -18.3647   29.2815 O   0  0  0  0  0  0  0  0  0  0  0  0
    0.7923  -19.0118   31.7353 C   0  0  0  0  0  0  0  0  0  0  0  0
  1  2  1  6
 22  1  1  0
  1 23  1  0
  3  4  2  0
 25  3  1  0
  4  5  1  0
  4 32  1  0
  5 26  1  0
 26  6  1  0
  6 27  1  0
 27  7  1  0
  7 28  2  0
  7 31  1  0
 28  8  1  0
  8 29  2  0
 10  9  2  0
 11 10  1  0
 10 25  1  0
 12 11  1  0
 12 13  1  0
 12 14  1  1
 13 30  1  0
 15 14  1  0
 16 15  1  6
 16 17  1  0
 20 16  1  0
 17 18  1  0
 17 19  1  1
 21 20  1  0
 20 24  2  0
 21 22  1  0
 25 42  2  0
 29 30  1  0
 30 31  2  0
 32 33  2  0
 33 34  1  0
 33 42  1  0
 34 35  1  0
 34 38  1  0
 35 36  1  0
 36 37  1  0
 38 39  2  0
 38 40  1  6
 38 41  2  0
M  CHG  1  15   1
M  END
$$$$
