
     RDKit          3D

 42 44  0  0  0  0  0  0  0  0999 V2000
   -3.9326  -20.9075   40.8340 C   0  0  2  0  0  0  0  0  0  0  0  0
   -3.7468  -19.3977   40.8743 C   0  0  0  0  0  0  0  0  0  0  0  0
   -0.7239  -17.6148   30.6815 C   0  0  0  0  0  0  0  0  0  0  0  0
    0.4382  -17.1415   30.0978 C   0  0  0  0  0  0  0  0  0  0  0  0
    0.7130  -16.2013   28.9937 C   0  0  0  0  0  0  0  0  0  0  0  0
    0.7070  -14.5077   30.7582 C   0  0  0  0  0  0  0  0  0  0  0  0
   -1.8064  -14.5450   31.3132 C   0  0  0  0  0  0  0  0  0  0  0  0
   -4.1546  -15.0878   30.7927 C   0  0  0  0  0  0  0  0  0  0  0  0
   -1.4644  -20.4551   32.6934 O   0  0  0  0  0  0  0  0  0  0  0  0
   -1.6362  -19.1539   32.5933 C   0  0  0  0  0  0  0  0  0  0  0  0
   -2.7495  -18.5944   33.3080 N   0  0  0  0  0  0  0  0  0  0  0  0
   -2.7728  -17.7176   34.4232 C   0  0  1  0  0  0  0  0  0  0  0  0
   -3.4884  -16.3837   34.1963 C   0  0  0  0  0  0  0  0  0  0  0  0
   -3.5176  -18.3276   35.6215 C   0  0  0  0  0  0  0  0  0  0  0  0
   -3.7388  -19.7143   35.5049 N   0  0  0  0  0  4  0  0  0  0  0  0
   -2.9052  -20.5715   36.2991 C   0  0  2  0  0  0  0  0  0  0  0  0
   -2.9326  -22.0083   35.8361 C   0  0  1  0  0  0  0  0  0  0  0  0
   -2.3365  -22.8652   36.7411 O   0  0  0  0  0  0  0  0  0  0  0  0
   -4.3507  -22.4891   35.5992 C   0  0  0  0  0  0  0  0  0  0  0  0
   -3.2649  -20.5308   37.7572 C   0  0  0  0  0  0  0  0  0  0  0  0
   -2.9932  -21.5712   38.6540 N   0  0  0  0  0  0  0  0  0  0  0  0
   -2.8396  -21.5257   40.0616 C   0  0  0  0  0  0  0  0  0  0  0  0
   -5.3216  -21.2462   40.4508 C   0  0  0  0  0  0  0  0  0  0  0  0
   -3.8423  -19.4974   38.1734 O   0  0  0  0  0  0  0  0  0  0  0  0
   -0.6143  -18.4989   31.7389 C   0  0  0  0  0  0  0  0  0  0  0  0
    1.4013  -14.9133   29.5014 C   0  0  0  0  0  0  0  0  0  0  0  0
   -0.6420  -13.9123   30.6427 C   0  0  0  0  0  0  0  0  0  0  0  0
   -2.9382  -14.5479   30.4640 C   0  0  0  0  0  0  0  0  0  0  0  0
   -4.2110  -15.6457   32.0366 C   0  0  0  0  0  0  0  0  0  0  0  0
   -3.1165  -15.6769   32.9371 C   0  0  0  0  0  0  0  0  0  0  0  0
   -1.9228  -15.1254   32.5715 C   0  0  0  0  0  0  0  0  0  0  0  0
    1.6978  -17.5765   30.5991 C   0  0  0  0  0  0  0  0  0  0  0  0
    1.8372  -18.4475   31.6374 C   0  0  0  0  0  0  0  0  0  0  0  0
    3.1099  -18.8756   32.1195 N   0  0  0  0  0  0  0  0  0  0  0  0
    3.4350  -18.7359   33.5054 C   0  0  0  0  0  0  0  0  0  0  0  0
    4.5653  -17.7435   33.7179 C   0  0  0  0  0  0  0  0  0  0  0  0
    4.5802  -17.3400   35.1631 C   0  0  0  0  0  0  0  0  0  0  0  0
    4.2425  -19.5778   31.0338 S   0  0  1  0  0  6  0  0  0  0  0  0
    3.5632  -20.4413   30.0267 O   0  0  0  0  0  0  0  0  0  0  0  0
    5.1588  -18.3326   30.1444 C   0  0  0  0  0  0  0  0  0  0  0  0
    5.1925  -20.4877   31.8026 O   0  0  0  0  0  0  0  0  0  0  0  0
    0.6705  -18.9000   32.1958 C   0  0  0  0  0  0  0  0  0  0  0  0
  1  2  1  6
 22  1  1  0
  1 23  1  0
  3  4  2  0
 25  3  1  0
  4  5  1  0
  4 32  1  0
  5 26  1  0
 26  6  1  0
  6 27  1  0
 27  7  1  0
  7 28  2  0
  7 31  1  0
 28  8  1  0
  8 29  2  0
 10  9  2  0
 11 10  1  0
 10 25  1  0
 12 11  1  0
 12 13  1  0
 12 14  1  1
 13 30  1  0
 15 14  1  0
 16 15  1  6
 16 17  1  0
 20 16  1  0
 17 18  1  0
 17 19  1  1
 21 20  1  0
 20 24  2  0
 21 22  1  0
 25 42  2  0
 29 30  1  0
 30 31  2  0
 32 33  2  0
 33 34  1  0
 33 42  1  0
 34 35  1  0
 34 38  1  0
 35 36  1  0
 36 37  1  0
 38 39  2  0
 38 40  1  6
 38 41  2  0
M  CHG  1  15   1
M  END
$$$$
