
     RDKit          3D

 42 44  0  0  0  0  0  0  0  0999 V2000
   -4.6934  -21.0825   40.3061 C   0  0  2  0  0  0  0  0  0  0  0  0
   -5.4405  -21.3200   41.6104 C   0  0  0  0  0  0  0  0  0  0  0  0
   -0.6593  -17.5041   30.9130 C   0  0  0  0  0  0  0  0  0  0  0  0
    0.1026  -16.6618   30.1223 C   0  0  0  0  0  0  0  0  0  0  0  0
   -0.2273  -15.5691   29.1865 C   0  0  0  0  0  0  0  0  0  0  0  0
   -0.0528  -14.1464   31.1682 C   0  0  0  0  0  0  0  0  0  0  0  0
   -2.1636  -14.9519   32.4022 C   0  0  0  0  0  0  0  0  0  0  0  0
   -4.3561  -16.0768   32.4827 C   0  0  0  0  0  0  0  0  0  0  0  0
   -0.0132  -20.6371   32.4718 O   0  0  0  0  0  0  0  0  0  0  0  0
   -0.5084  -19.4347   32.6754 C   0  0  0  0  0  0  0  0  0  0  0  0
   -1.4249  -19.2928   33.7723 N   0  0  0  0  0  0  0  0  0  0  0  0
   -1.2872  -18.5836   34.9933 C   0  0  1  0  0  0  0  0  0  0  0  0
   -2.3293  -17.4899   35.2400 C   0  0  0  0  0  0  0  0  0  0  0  0
   -1.4341  -19.5045   36.2153 C   0  0  0  0  0  0  0  0  0  0  0  0
   -2.3619  -20.5486   36.0297 N   0  0  0  0  0  4  0  0  0  0  0  0
   -3.7385  -20.1715   35.8778 C   0  0  2  0  0  0  0  0  0  0  0  0
   -3.9206  -18.9640   34.9900 C   0  0  1  0  0  0  0  0  0  0  0  0
   -3.9022  -19.2892   33.6474 O   0  0  0  0  0  0  0  0  0  0  0  0
   -5.2263  -18.2511   35.2818 C   0  0  0  0  0  0  0  0  0  0  0  0
   -4.4083  -19.9030   37.1955 C   0  0  0  0  0  0  0  0  0  0  0  0
   -5.1564  -20.8573   37.8956 N   0  0  0  0  0  0  0  0  0  0  0  0
   -5.6542  -20.8115   39.2213 C   0  0  0  0  0  0  0  0  0  0  0  0
   -3.6902  -22.1482   40.0850 C   0  0  0  0  0  0  0  0  0  0  0  0
   -4.2784  -18.7516   37.6770 O   0  0  0  0  0  0  0  0  0  0  0  0
   -0.0058  -18.4296   31.7056 C   0  0  0  0  0  0  0  0  0  0  0  0
    0.2668  -14.2016   29.7118 C   0  0  0  0  0  0  0  0  0  0  0  0
   -1.4652  -13.9476   31.5598 C   0  0  0  0  0  0  0  0  0  0  0  0
   -3.4767  -15.1831   31.9287 C   0  0  0  0  0  0  0  0  0  0  0  0
   -3.8701  -16.7584   33.5602 C   0  0  0  0  0  0  0  0  0  0  0  0
   -2.5664  -16.5757   34.0861 C   0  0  0  0  0  0  0  0  0  0  0  0
   -1.7224  -15.6734   33.5061 C   0  0  0  0  0  0  0  0  0  0  0  0
    1.5218  -16.7744   30.1491 C   0  0  0  0  0  0  0  0  0  0  0  0
    2.1931  -17.6770   30.9177 C   0  0  0  0  0  0  0  0  0  0  0  0
    3.6163  -17.7773   30.9240 N   0  0  0  0  0  0  0  0  0  0  0  0
    4.2440  -19.0625   30.9088 C   0  0  0  0  0  0  0  0  0  0  0  0
    4.3962  -19.5944   29.4941 C   0  0  0  0  0  0  0  0  0  0  0  0
    3.9230  -21.0181   29.4665 C   0  0  0  0  0  0  0  0  0  0  0  0
    4.5732  -16.3493   30.9296 S   0  0  1  0  0  6  0  0  0  0  0  0
    5.6472  -16.4216   31.9605 O   0  0  0  0  0  0  0  0  0  0  0  0
    5.3592  -16.0790   29.3517 C   0  0  0  0  0  0  0  0  0  0  0  0
    3.7059  -15.1533   31.3022 O   0  0  0  0  0  0  0  0  0  0  0  0
    1.4138  -18.4980   31.6898 C   0  0  0  0  0  0  0  0  0  0  0  0
  1  2  1  1
 22  1  1  0
  1 23  1  0
  3  4  2  0
 25  3  1  0
  4  5  1  0
  4 32  1  0
  5 26  1  0
 26  6  1  0
  6 27  1  0
 27  7  1  0
  7 28  2  0
  7 31  1  0
 28  8  1  0
  8 29  2  0
 10  9  2  0
 11 10  1  0
 10 25  1  0
 12 11  1  0
 12 13  1  0
 12 14  1  1
 13 30  1  0
 15 14  1  0
 16 15  1  1
 16 17  1  0
 20 16  1  0
 17 18  1  0
 17 19  1  1
 21 20  1  0
 20 24  2  0
 21 22  1  0
 25 42  2  0
 29 30  1  0
 30 31  2  0
 32 33  2  0
 33 34  1  0
 33 42  1  0
 34 35  1  0
 34 38  1  0
 35 36  1  0
 36 37  1  0
 38 39  2  0
 38 40  1  6
 38 41  2  0
M  CHG  1  15   1
M  END
$$$$
