
     RDKit          3D

 42 44  0  0  0  0  0  0  0  0999 V2000
   -5.7662  -17.3212   31.6480 C   0  0  2  0  0  0  0  0  0  0  0  0
   -6.5503  -17.8712   30.4655 C   0  0  0  0  0  0  0  0  0  0  0  0
    2.9704  -18.8854   33.2934 C   0  0  0  0  0  0  0  0  0  0  0  0
    3.8114  -18.5627   32.2427 C   0  0  0  0  0  0  0  0  0  0  0  0
    5.2095  -18.9047   31.9158 C   0  0  0  0  0  0  0  0  0  0  0  0
    4.2155  -20.8157   30.7574 C   0  0  0  0  0  0  0  0  0  0  0  0
    3.4167  -22.1364   32.8177 C   0  0  0  0  0  0  0  0  0  0  0  0
    3.4380  -22.6544   35.2282 C   0  0  0  0  0  0  0  0  0  0  0  0
   -0.0241  -17.4370   34.5575 O   0  0  0  0  0  0  0  0  0  0  0  0
    0.5352  -18.5749   34.2041 C   0  0  0  0  0  0  0  0  0  0  0  0
   -0.0356  -19.7719   34.7560 N   0  0  0  0  0  0  0  0  0  0  0  0
   -0.7382  -20.8277   34.1198 C   0  0  1  0  0  0  0  0  0  0  0  0
   -0.1090  -22.2158   34.2617 C   0  0  0  0  0  0  0  0  0  0  0  0
   -2.1509  -21.0109   34.6970 C   0  0  0  0  0  0  0  0  0  0  0  0
   -2.4880  -20.0617   35.6824 N   0  0  0  0  0  4  0  0  0  0  0  0
   -3.0532  -18.8249   35.2228 C   0  0  2  0  0  0  0  0  0  0  0  0
   -3.1138  -17.7714   36.3026 C   0  0  1  0  0  0  0  0  0  0  0  0
   -1.8947  -17.1541   36.5059 O   0  0  0  0  0  0  0  0  0  0  0  0
   -4.1339  -16.6985   35.9761 C   0  0  0  0  0  0  0  0  0  0  0  0
   -4.4299  -19.0020   34.6481 C   0  0  0  0  0  0  0  0  0  0  0  0
   -5.1005  -18.0131   33.9181 N   0  0  0  0  0  0  0  0  0  0  0  0
   -6.0089  -18.1539   32.8401 C   0  0  0  0  0  0  0  0  0  0  0  0
   -5.9793  -15.8619   31.7742 C   0  0  0  0  0  0  0  0  0  0  0  0
   -4.9931  -20.1056   34.8468 O   0  0  0  0  0  0  0  0  0  0  0  0
    1.6780  -18.3941   33.2743 C   0  0  0  0  0  0  0  0  0  0  0  0
    5.2976  -19.7936   30.6539 C   0  0  0  0  0  0  0  0  0  0  0  0
    4.3974  -21.9210   31.7233 C   0  0  0  0  0  0  0  0  0  0  0  0
    4.0748  -22.4333   34.0346 C   0  0  0  0  0  0  0  0  0  0  0  0
    2.0775  -22.5665   35.1711 C   0  0  0  0  0  0  0  0  0  0  0  0
    1.3554  -22.2734   33.9868 C   0  0  0  0  0  0  0  0  0  0  0  0
    2.0281  -22.0623   32.8182 C   0  0  0  0  0  0  0  0  0  0  0  0
    3.3242  -17.7422   31.1860 C   0  0  0  0  0  0  0  0  0  0  0  0
    2.0576  -17.2423   31.1408 C   0  0  0  0  0  0  0  0  0  0  0  0
    1.5921  -16.4159   30.0750 N   0  0  0  0  0  0  0  0  0  0  0  0
    0.1883  -16.2292   29.8739 C   0  0  0  0  0  0  0  0  0  0  0  0
   -0.4352  -15.4194   30.9978 C   0  0  0  0  0  0  0  0  0  0  0  0
   -0.1678  -13.9651   30.7427 C   0  0  0  0  0  0  0  0  0  0  0  0
    2.7235  -15.6302   29.0467 S   0  0  1  0  0  6  0  0  0  0  0  0
    2.0588  -14.6028   28.1958 O   0  0  0  0  0  0  0  0  0  0  0  0
    4.0015  -14.8096   29.9817 C   0  0  0  0  0  0  0  0  0  0  0  0
    3.3354  -16.6448   28.0887 O   0  0  0  0  0  0  0  0  0  0  0  0
    1.2473  -17.5774   32.1937 C   0  0  0  0  0  0  0  0  0  0  0  0
  1  2  1  6
 22  1  1  0
  1 23  1  0
  3  4  2  0
 25  3  1  0
  4  5  1  0
  4 32  1  0
  5 26  1  0
 26  6  1  0
  6 27  1  0
 27  7  1  0
  7 28  2  0
  7 31  1  0
 28  8  1  0
  8 29  2  0
 10  9  2  0
 11 10  1  0
 10 25  1  0
 12 11  1  0
 12 13  1  0
 12 14  1  1
 13 30  1  0
 15 14  1  0
 16 15  1  1
 16 17  1  0
 20 16  1  0
 17 18  1  0
 17 19  1  6
 21 20  1  0
 20 24  2  0
 21 22  1  0
 25 42  2  0
 29 30  1  0
 30 31  2  0
 32 33  2  0
 33 34  1  0
 33 42  1  0
 34 35  1  0
 34 38  1  0
 35 36  1  0
 36 37  1  0
 38 39  2  0
 38 40  1  1
 38 41  2  0
M  CHG  1  15   1
M  END
$$$$
