
     RDKit          3D

 42 44  0  0  0  0  0  0  0  0999 V2000
   -4.7871  -16.4702   37.6283 C   0  0  2  0  0  0  0  0  0  0  0  0
   -5.3277  -15.0968   37.2578 C   0  0  0  0  0  0  0  0  0  0  0  0
    1.5353  -18.0052   33.6172 C   0  0  0  0  0  0  0  0  0  0  0  0
    2.0782  -17.3943   32.5004 C   0  0  0  0  0  0  0  0  0  0  0  0
    3.4585  -17.2070   32.0122 C   0  0  0  0  0  0  0  0  0  0  0  0
    3.0868  -19.3404   30.8754 C   0  0  0  0  0  0  0  0  0  0  0  0
    3.0564  -20.8734   32.9431 C   0  0  0  0  0  0  0  0  0  0  0  0
    3.5394  -21.3644   35.3106 C   0  0  0  0  0  0  0  0  0  0  0  0
   -1.6118  -17.7422   35.2572 O   0  0  0  0  0  0  0  0  0  0  0  0
   -0.7274  -18.5996   34.7931 C   0  0  0  0  0  0  0  0  0  0  0  0
   -0.7648  -19.9254   35.3445 N   0  0  0  0  0  0  0  0  0  0  0  0
   -1.1118  -21.1594   34.7364 C   0  0  1  0  0  0  0  0  0  0  0  0
   -0.0161  -22.2281   34.7450 C   0  0  0  0  0  0  0  0  0  0  0  0
   -2.2890  -21.8434   35.4499 C   0  0  0  0  0  0  0  0  0  0  0  0
   -3.5504  -21.3455   35.0670 N   0  0  0  0  0  4  0  0  0  0  0  0
   -3.6363  -19.9378   34.7997 C   0  0  2  0  0  0  0  0  0  0  0  0
   -3.2466  -19.5854   33.3842 C   0  0  1  0  0  0  0  0  0  0  0  0
   -3.8260  -20.4256   32.4532 O   0  0  0  0  0  0  0  0  0  0  0  0
   -3.6368  -18.1619   33.0381 C   0  0  0  0  0  0  0  0  0  0  0  0
   -2.7995  -19.1226   35.7443 C   0  0  0  0  0  0  0  0  0  0  0  0
   -3.3310  -18.2085   36.6621 N   0  0  0  0  0  0  0  0  0  0  0  0
   -4.2058  -17.1169   36.4378 C   0  0  0  0  0  0  0  0  0  0  0  0
   -5.7959  -17.2306   38.3996 C   0  0  0  0  0  0  0  0  0  0  0  0
   -1.5564  -19.2845   35.6898 O   0  0  0  0  0  0  0  0  0  0  0  0
    0.1599  -18.0129   33.7578 C   0  0  0  0  0  0  0  0  0  0  0  0
    3.7122  -17.9962   30.7071 C   0  0  0  0  0  0  0  0  0  0  0  0
    3.7620  -20.3119   31.7630 C   0  0  0  0  0  0  0  0  0  0  0  0
    3.9128  -20.9209   34.0684 C   0  0  0  0  0  0  0  0  0  0  0  0
    2.2406  -21.7726   35.4014 C   0  0  0  0  0  0  0  0  0  0  0  0
    1.3299  -21.7520   34.3151 C   0  0  0  0  0  0  0  0  0  0  0  0
    1.7430  -21.3050   33.0934 C   0  0  0  0  0  0  0  0  0  0  0  0
    1.2114  -16.7979   31.5411 C   0  0  0  0  0  0  0  0  0  0  0  0
   -0.1463  -16.7881   31.6533 C   0  0  0  0  0  0  0  0  0  0  0  0
   -0.9961  -16.1783   30.6830 N   0  0  0  0  0  0  0  0  0  0  0  0
   -1.0580  -14.7530   30.5795 C   0  0  0  0  0  0  0  0  0  0  0  0
   -1.7310  -14.1325   31.7916 C   0  0  0  0  0  0  0  0  0  0  0  0
   -3.1100  -13.6910   31.3975 C   0  0  0  0  0  0  0  0  0  0  0  0
   -1.9294  -17.1619   29.6264 S   0  0  1  0  0  6  0  0  0  0  0  0
   -3.1603  -16.4537   29.1741 O   0  0  0  0  0  0  0  0  0  0  0  0
   -1.0071  -17.6213   28.1706 C   0  0  0  0  0  0  0  0  0  0  0  0
   -2.4027  -18.4053   30.3690 O   0  0  0  0  0  0  0  0  0  0  0  0
   -0.6560  -17.3996   32.7686 C   0  0  0  0  0  0  0  0  0  0  0  0
  1  2  1  6
 22  1  1  0
  1 23  1  0
  3  4  2  0
 25  3  1  0
  4  5  1  0
  4 32  1  0
  5 26  1  0
 26  6  1  0
  6 27  1  0
 27  7  1  0
  7 28  2  0
  7 31  1  0
 28  8  1  0
  8 29  2  0
 10  9  2  0
 11 10  1  0
 10 25  1  0
 12 11  1  0
 12 13  1  0
 12 14  1  1
 13 30  1  0
 15 14  1  0
 16 15  1  1
 16 17  1  0
 20 16  1  0
 17 18  1  0
 17 19  1  6
 21 20  1  0
 20 24  2  0
 21 22  1  0
 25 42  2  0
 29 30  1  0
 30 31  2  0
 32 33  2  0
 33 34  1  0
 33 42  1  0
 34 35  1  0
 34 38  1  0
 35 36  1  0
 36 37  1  0
 38 39  2  0
 38 40  1  6
 38 41  2  0
M  CHG  1  15   1
M  END
$$$$
