
     RDKit          3D

 42 44  0  0  0  0  0  0  0  0999 V2000
    0.7369  -17.7825   36.8438 C   0  0  2  0  0  0  0  0  0  0  0  0
    1.1294  -16.9342   38.0446 C   0  0  0  0  0  0  0  0  0  0  0  0
   -0.7050  -16.4391   30.6224 C   0  0  0  0  0  0  0  0  0  0  0  0
    0.5637  -15.8908   30.5518 C   0  0  0  0  0  0  0  0  0  0  0  0
    1.0755  -14.5496   30.2081 C   0  0  0  0  0  0  0  0  0  0  0  0
    0.8334  -14.1105   32.6019 C   0  0  0  0  0  0  0  0  0  0  0  0
   -1.7377  -14.0950   32.7281 C   0  0  0  0  0  0  0  0  0  0  0  0
   -3.9777  -13.9342   31.7102 C   0  0  0  0  0  0  0  0  0  0  0  0
   -1.9261  -19.7813   30.5876 O   0  0  0  0  0  0  0  0  0  0  0  0
   -2.0160  -18.6271   31.2139 C   0  0  0  0  0  0  0  0  0  0  0  0
   -3.2116  -18.3996   31.9767 N   0  0  0  0  0  0  0  0  0  0  0  0
   -3.3929  -18.2794   33.3787 C   0  0  1  0  0  0  0  0  0  0  0  0
   -3.9929  -16.9535   33.8530 C   0  0  0  0  0  0  0  0  0  0  0  0
   -4.3679  -19.3336   33.9271 C   0  0  0  0  0  0  0  0  0  0  0  0
   -3.8082  -20.6224   34.0331 N   0  0  0  0  0  4  0  0  0  0  0  0
   -2.6420  -20.7553   34.8594 C   0  0  2  0  0  0  0  0  0  0  0  0
   -2.6878  -21.9771   35.7451 C   0  0  1  0  0  0  0  0  0  0  0  0
   -3.7702  -21.9657   36.6035 O   0  0  0  0  0  0  0  0  0  0  0  0
   -2.7499  -23.2534   34.9292 C   0  0  0  0  0  0  0  0  0  0  0  0
   -2.4091  -19.5470   35.7211 C   0  0  0  0  0  0  0  0  0  0  0  0
   -1.1782  -19.2413   36.3144 N   0  0  0  0  0  0  0  0  0  0  0  0
   -0.7195  -18.0114   36.8475 C   0  0  0  0  0  0  0  0  0  0  0  0
    1.6182  -18.9671   36.7390 C   0  0  0  0  0  0  0  0  0  0  0  0
   -3.3867  -18.7828   35.9081 O   0  0  0  0  0  0  0  0  0  0  0  0
   -0.8280  -17.7616   31.0063 C   0  0  0  0  0  0  0  0  0  0  0  0
    1.7216  -13.8570   31.4301 C   0  0  0  0  0  0  0  0  0  0  0  0
   -0.4437  -13.3680   32.6760 C   0  0  0  0  0  0  0  0  0  0  0  0
   -2.6982  -13.4775   31.8925 C   0  0  0  0  0  0  0  0  0  0  0  0
   -4.2819  -15.0658   32.4094 C   0  0  0  0  0  0  0  0  0  0  0  0
   -3.3689  -15.7343   33.2634 C   0  0  0  0  0  0  0  0  0  0  0  0
   -2.1045  -15.2447   33.4191 C   0  0  0  0  0  0  0  0  0  0  0  0
    1.6915  -16.6985   30.8727 C   0  0  0  0  0  0  0  0  0  0  0  0
    1.6017  -18.0040   31.2519 C   0  0  0  0  0  0  0  0  0  0  0  0
    2.7461  -18.7974   31.5625 N   0  0  0  0  0  0  0  0  0  0  0  0
    3.4390  -19.4934   30.5226 C   0  0  0  0  0  0  0  0  0  0  0  0
    3.2565  -18.8139   29.1764 C   0  0  0  0  0  0  0  0  0  0  0  0
    4.0639  -19.5577   28.1534 C   0  0  0  0  0  0  0  0  0  0  0  0
    3.3006  -18.8977   33.1865 S   0  0  1  0  0  6  0  0  0  0  0  0
    4.3701  -19.9257   33.3306 O   0  0  0  0  0  0  0  0  0  0  0  0
    3.9690  -17.3431   33.7497 C   0  0  0  0  0  0  0  0  0  0  0  0
    2.1581  -19.3429   34.0910 O   0  0  0  0  0  0  0  0  0  0  0  0
    0.3340  -18.5206   31.3129 C   0  0  0  0  0  0  0  0  0  0  0  0
  1  2  1  1
 22  1  1  0
  1 23  1  0
  3  4  2  0
 25  3  1  0
  4  5  1  0
  4 32  1  0
  5 26  1  0
 26  6  1  0
  6 27  1  0
 27  7  1  0
  7 28  2  0
  7 31  1  0
 28  8  1  0
  8 29  2  0
 10  9  2  0
 11 10  1  0
 10 25  1  0
 12 11  1  0
 12 13  1  0
 12 14  1  6
 13 30  1  0
 15 14  1  0
 16 15  1  1
 16 17  1  0
 20 16  1  0
 17 18  1  0
 17 19  1  6
 21 20  1  0
 20 24  2  0
 21 22  1  0
 25 42  2  0
 29 30  1  0
 30 31  2  0
 32 33  2  0
 33 34  1  0
 33 42  1  0
 34 35  1  0
 34 38  1  0
 35 36  1  0
 36 37  1  0
 38 39  2  0
 38 40  1  1
 38 41  2  0
M  CHG  1  15   1
M  END
$$$$
