
     RDKit          3D

 31 34  0  0  0  0  0  0  0  0999 V2000
  -13.6603    9.5598    0.2581 C   0  0  0  0  0  0  0  0  0  0  0  0
  -12.5832    9.2636    1.0361 C   0  0  0  0  0  0  0  0  0  0  0  0
  -11.5814   10.2145    1.2285 C   0  0  0  0  0  0  0  0  0  0  0  0
  -11.6625   11.4733    0.6344 C   0  0  0  0  0  0  0  0  0  0  0  0
  -12.7544   11.7725   -0.1535 C   0  0  0  0  0  0  0  0  0  0  0  0
  -26.6149   11.0684   -1.3463 C   0  0  0  0  0  0  0  0  0  0  0  0
  -25.2067   10.8076   -1.0148 C   0  0  0  0  0  0  0  0  0  0  0  0
  -24.4315   11.8554   -0.5695 C   0  0  0  0  0  0  0  0  0  0  0  0
  -23.1035   11.6213   -0.2543 C   0  0  0  0  0  0  0  0  0  0  0  0
  -24.6743    9.5492   -1.1454 C   0  0  0  0  0  0  0  0  0  0  0  0
  -23.3488    9.3276   -0.8281 C   0  0  0  0  0  0  0  0  0  0  0  0
  -22.5489   10.3522   -0.3811 C   0  0  0  0  0  0  0  0  0  0  0  0
  -20.2284    8.7183   -1.0211 C   0  0  1  0  0  0  0  0  0  0  0  0
  -20.1300    6.4087   -1.0174 C   0  0  2  0  0  0  0  0  0  0  0  0
  -20.8118    5.2239   -0.3206 C   0  0  0  0  0  0  0  0  0  0  0  0
  -18.6630    6.3619   -0.7628 C   0  0  1  0  0  0  0  0  0  0  0  0
  -17.9891    7.5864   -1.2999 C   0  0  1  0  0  0  0  0  0  0  0  0
  -15.9236    8.8400   -0.6579 C   0  0  0  0  0  0  0  0  0  0  0  0
  -14.7344    8.5970    0.0272 C   0  0  0  0  0  0  0  0  0  0  0  0
  -13.7096   10.8237   -0.3189 C   0  0  0  0  0  0  0  0  0  0  0  0
  -18.7506    8.8561   -1.1372 C   0  0  1  0  0  0  0  0  0  0  0  0
  -10.4898    9.9811    1.9873 F   0  0  0  0  0  0  0  0  0  0  0  0
  -10.7216   12.4221    0.7898 F   0  0  0  0  0  0  0  0  0  0  0  0
  -16.6701    7.7207   -0.6716 N   0  0  0  0  0  0  0  0  0  0  0  0
  -14.8224    7.3114    0.4031 N   0  0  0  0  0  0  0  0  0  0  0  0
  -15.9844    6.7957   -0.0197 N   0  0  0  0  0  0  0  0  0  0  0  0
  -20.6506    7.5497   -0.4301 O   0  0  0  0  0  0  0  0  0  0  0  0
  -21.9567    4.8524   -1.0058 O   0  0  0  0  0  0  0  0  0  0  0  0
  -18.4438    6.3341    0.6255 O   0  0  0  0  0  0  0  0  0  0  0  0
  -18.4981    9.6522   -2.2788 O   0  0  0  0  0  0  0  0  0  0  0  0
  -20.8279   10.0848    0.0359 S   0  0  0  0  0  0  0  0  0  0  0  0
  1  2  2  0
 19  1  1  0
  1 20  1  0
  2  3  1  0
  3  4  2  0
  3 22  1  0
  5  4  1  0
  4 23  1  0
 20  5  2  0
  6  7  1  6
  8  7  2  0
 10  7  1  0
  9  8  1  0
 12  9  2  0
 11 10  2  0
 12 11  1  0
 31 12  1  0
 21 13  1  0
 13 27  1  0
 13 31  1  1
 14 15  1  0
 16 14  1  0
 14 27  1  1
 15 28  1  6
 17 16  1  0
 16 29  1  1
 17 21  1  0
 17 24  1  1
 18 19  2  0
 18 24  1  0
 19 25  1  0
 21 30  1  6
 24 26  1  0
 25 26  2  0
M  END
$$$$
