
     RDKit          3D

 31 34  0  0  0  0  0  0  0  0999 V2000
  -13.7795    9.2265    0.3457 C   0  0  0  0  0  0  0  0  0  0  0  0
  -13.2881    8.1342    0.9926 C   0  0  0  0  0  0  0  0  0  0  0  0
  -11.9686    8.1282    1.4443 C   0  0  0  0  0  0  0  0  0  0  0  0
  -11.1362    9.2288    1.2442 C   0  0  0  0  0  0  0  0  0  0  0  0
  -11.6352   10.3351    0.5888 C   0  0  0  0  0  0  0  0  0  0  0  0
  -26.6487    7.7702   -5.2702 C   0  0  0  0  0  0  0  0  0  0  0  0
  -25.3904    8.2032   -4.6456 C   0  0  0  0  0  0  0  0  0  0  0  0
  -25.2982    9.4967   -4.1815 C   0  0  0  0  0  0  0  0  0  0  0  0
  -24.1175    9.9155   -3.5913 C   0  0  0  0  0  0  0  0  0  0  0  0
  -24.3300    7.3397   -4.5267 C   0  0  0  0  0  0  0  0  0  0  0  0
  -23.1576    7.7684   -3.9365 C   0  0  0  0  0  0  0  0  0  0  0  0
  -23.0340    9.0529   -3.4632 C   0  0  0  0  0  0  0  0  0  0  0  0
  -20.6448    8.1493   -2.0706 C   0  0  1  0  0  0  0  0  0  0  0  0
  -20.4293    6.9281   -0.1197 C   0  0  2  0  0  0  0  0  0  0  0  0
  -21.1788    6.7208    1.2030 C   0  0  0  0  0  0  0  0  0  0  0  0
  -19.0473    7.4096    0.1588 C   0  0  1  0  0  0  0  0  0  0  0  0
  -18.3408    7.7673   -1.1120 C   0  0  1  0  0  0  0  0  0  0  0  0
  -16.0036    8.1904   -0.3320 C   0  0  0  0  0  0  0  0  0  0  0  0
  -15.1543    9.2796   -0.1454 C   0  0  0  0  0  0  0  0  0  0  0  0
  -12.9229   10.3062    0.1632 C   0  0  0  0  0  0  0  0  0  0  0  0
  -19.1845    8.4294   -2.1455 C   0  0  1  0  0  0  0  0  0  0  0  0
  -11.4235    7.0764    2.0910 F   0  0  0  0  0  0  0  0  0  0  0  0
   -9.8576    9.2693    1.6604 F   0  0  0  0  0  0  0  0  0  0  0  0
  -17.1909    8.6217   -0.7955 N   0  0  0  0  0  0  0  0  0  0  0  0
  -15.8876   10.3417   -0.5141 N   0  0  0  0  0  0  0  0  0  0  0  0
  -17.1047    9.9378   -0.9015 N   0  0  0  0  0  0  0  0  0  0  0  0
  -21.1197    7.9170   -0.8003 O   0  0  0  0  0  0  0  0  0  0  0  0
  -22.2414    5.8501    1.0262 O   0  0  0  0  0  0  0  0  0  0  0  0
  -19.1216    8.5742    0.9427 O   0  0  0  0  0  0  0  0  0  0  0  0
  -18.7411    7.9763   -3.4100 O   0  0  0  0  0  0  0  0  0  0  0  0
  -21.5221    9.6276   -2.6943 S   0  0  0  0  0  0  0  0  0  0  0  0
  1  2  2  0
 19  1  1  0
  1 20  1  0
  2  3  1  0
  3  4  2  0
  3 22  1  0
  5  4  1  0
  4 23  1  0
 20  5  2  0
  6  7  1  6
  8  7  2  0
 10  7  1  0
  9  8  1  0
 12  9  2  0
 11 10  2  0
 12 11  1  0
 31 12  1  0
 21 13  1  0
 13 27  1  0
 13 31  1  1
 14 15  1  0
 16 14  1  0
 14 27  1  6
 15 28  1  6
 17 16  1  0
 16 29  1  1
 17 21  1  0
 17 24  1  1
 18 19  2  0
 18 24  1  0
 19 25  1  0
 21 30  1  6
 24 26  1  0
 25 26  2  0
M  END
$$$$
