
     RDKit          3D

 31 34  0  0  0  0  0  0  0  0999 V2000
  -13.3413    8.9370   -0.2432 C   0  0  0  0  0  0  0  0  0  0  0  0
  -12.6596    7.7779   -0.4554 C   0  0  0  0  0  0  0  0  0  0  0  0
  -11.2674    7.7644   -0.3722 C   0  0  0  0  0  0  0  0  0  0  0  0
  -10.5546    8.9249   -0.0734 C   0  0  0  0  0  0  0  0  0  0  0  0
  -11.2464   10.0987    0.1415 C   0  0  0  0  0  0  0  0  0  0  0  0
  -27.3423    7.8264   -1.7252 C   0  0  0  0  0  0  0  0  0  0  0  0
  -25.9507    8.2383   -1.4913 C   0  0  0  0  0  0  0  0  0  0  0  0
  -25.2023    8.6650   -2.5659 C   0  0  0  0  0  0  0  0  0  0  0  0
  -23.8901    9.0554   -2.3573 C   0  0  0  0  0  0  0  0  0  0  0  0
  -25.4074    8.1992   -0.2314 C   0  0  0  0  0  0  0  0  0  0  0  0
  -24.0980    8.5909   -0.0353 C   0  0  0  0  0  0  0  0  0  0  0  0
  -23.3248    9.0217   -1.0869 C   0  0  0  0  0  0  0  0  0  0  0  0
  -20.5693    8.1271   -1.3524 C   0  0  1  0  0  0  0  0  0  0  0  0
  -19.8018    6.1191   -0.5021 C   0  0  2  0  0  0  0  0  0  0  0  0
  -20.1621    5.1193    0.6047 C   0  0  0  0  0  0  0  0  0  0  0  0
  -18.4106    6.6111   -0.2981 C   0  0  1  0  0  0  0  0  0  0  0  0
  -18.0822    7.7011   -1.2707 C   0  0  1  0  0  0  0  0  0  0  0  0
  -15.6345    8.0477   -0.8989 C   0  0  0  0  0  0  0  0  0  0  0  0
  -14.7987    9.0007   -0.3194 C   0  0  0  0  0  0  0  0  0  0  0  0
  -12.5998   10.0751    0.0526 C   0  0  0  0  0  0  0  0  0  0  0  0
  -19.1916    8.6515   -1.5611 C   0  0  1  0  0  0  0  0  0  0  0  0
  -10.5353    6.6483   -0.5724 F   0  0  0  0  0  0  0  0  0  0  0  0
   -9.2129    8.9614    0.0166 F   0  0  0  0  0  0  0  0  0  0  0  0
  -16.9151    8.4432   -0.7811 N   0  0  0  0  0  0  0  0  0  0  0  0
  -15.6355    9.9486    0.1314 N   0  0  0  0  0  0  0  0  0  0  0  0
  -16.8997    9.6059   -0.1497 N   0  0  0  0  0  0  0  0  0  0  0  0
  -20.6784    7.1815   -0.3588 O   0  0  0  0  0  0  0  0  0  0  0  0
  -21.4433    4.6282    0.4154 O   0  0  0  0  0  0  0  0  0  0  0  0
  -18.3058    7.1532    0.9948 O   0  0  0  0  0  0  0  0  0  0  0  0
  -19.0911    9.0185   -2.9234 O   0  0  0  0  0  0  0  0  0  0  0  0
  -21.6248    9.5343   -0.8530 S   0  0  0  0  0  0  0  0  0  0  0  0
  1  2  2  0
 19  1  1  0
  1 20  1  0
  2  3  1  0
  3  4  2  0
  3 22  1  0
  5  4  1  0
  4 23  1  0
 20  5  2  0
  6  7  1  6
  8  7  2  0
 10  7  1  0
  9  8  1  0
 12  9  2  0
 11 10  2  0
 12 11  1  0
 31 12  1  0
 21 13  1  0
 13 27  1  0
 13 31  1  1
 14 15  1  0
 16 14  1  0
 14 27  1  1
 15 28  1  6
 17 16  1  0
 16 29  1  1
 17 21  1  0
 17 24  1  1
 18 19  2  0
 18 24  1  0
 19 25  1  0
 21 30  1  6
 24 26  1  0
 25 26  2  0
M  END
$$$$
