
     RDKit          3D

 31 34  0  0  0  0  0  0  0  0999 V2000
  -13.3568    8.9416    0.2290 C   0  0  0  0  0  0  0  0  0  0  0  0
  -12.5742    9.3571    1.2834 C   0  0  0  0  0  0  0  0  0  0  0  0
  -11.2173    9.1148    1.3358 C   0  0  0  0  0  0  0  0  0  0  0  0
  -10.6386    8.4249    0.2764 C   0  0  0  0  0  0  0  0  0  0  0  0
  -11.3842    7.9915   -0.7975 C   0  0  0  0  0  0  0  0  0  0  0  0
  -26.2597    6.4669   -4.4312 C   0  0  0  0  0  0  0  0  0  0  0  0
  -25.2263    7.2049   -3.6521 C   0  0  0  0  0  0  0  0  0  0  0  0
  -25.5432    7.9390   -2.5288 C   0  0  0  0  0  0  0  0  0  0  0  0
  -24.5936    8.6233   -1.8040 C   0  0  0  0  0  0  0  0  0  0  0  0
  -23.8956    7.1914   -4.0155 C   0  0  0  0  0  0  0  0  0  0  0  0
  -22.9326    7.8714   -3.3003 C   0  0  0  0  0  0  0  0  0  0  0  0
  -23.2692    8.5998   -2.1801 C   0  0  0  0  0  0  0  0  0  0  0  0
  -20.4197    8.6812   -1.5896 C   0  0  1  0  0  0  0  0  0  0  0  0
  -19.9146    6.6696   -0.4829 C   0  0  2  0  0  0  0  0  0  0  0  0
  -20.9528    6.1952    0.5347 C   0  0  0  0  0  0  0  0  0  0  0  0
  -18.7203    7.2730    0.1868 C   0  0  1  0  0  0  0  0  0  0  0  0
  -18.1758    8.3635   -0.7108 C   0  0  1  0  0  0  0  0  0  0  0  0
  -15.7498    8.3827   -0.3843 C   0  0  0  0  0  0  0  0  0  0  0  0
  -14.7976    9.2028    0.1814 C   0  0  0  0  0  0  0  0  0  0  0  0
  -12.7354    8.2658   -0.7887 C   0  0  0  0  0  0  0  0  0  0  0  0
  -19.2990    9.3663   -0.8410 C   0  0  1  0  0  0  0  0  0  0  0  0
  -10.4311    9.5145    2.3622 F   0  0  0  0  0  0  0  0  0  0  0  0
   -9.3235    8.1769    0.3027 F   0  0  0  0  0  0  0  0  0  0  0  0
  -16.9602    8.9488   -0.2375 N   0  0  0  0  0  0  0  0  0  0  0  0
  -15.4650   10.2567    0.6616 N   0  0  0  0  0  0  0  0  0  0  0  0
  -16.7513   10.0904    0.4044 N   0  0  0  0  0  0  0  0  0  0  0  0
  -20.4369    7.3312   -1.5410 O   0  0  0  0  0  0  0  0  0  0  0  0
  -21.5993    5.1086   -0.0753 O   0  0  0  0  0  0  0  0  0  0  0  0
  -19.1591    7.8167    1.4044 O   0  0  0  0  0  0  0  0  0  0  0  0
  -18.8763   10.5258   -1.4913 O   0  0  0  0  0  0  0  0  0  0  0  0
  -22.0186    9.4795   -1.2468 S   0  0  0  0  0  0  0  0  0  0  0  0
  1  2  2  0
 19  1  1  0
  1 20  1  0
  2  3  1  0
  3  4  2  0
  3 22  1  0
  5  4  1  0
  4 23  1  0
 20  5  2  0
  7  6  1  0
  8  7  2  0
 10  7  1  0
  9  8  1  0
 12  9  2  0
 11 10  2  0
 12 11  1  0
 31 12  1  0
 21 13  1  0
 13 27  1  0
 13 31  1  1
 14 15  1  1
 16 14  1  0
 14 27  1  0
 15 28  1  0
 17 16  1  0
 16 29  1  1
 17 21  1  0
 17 24  1  1
 18 19  2  0
 18 24  1  0
 19 25  1  0
 21 30  1  6
 24 26  1  0
 25 26  2  0
M  END
$$$$
