
     RDKit          3D

 31 34  0  0  0  0  0  0  0  0999 V2000
  -13.5678    9.4328   -0.2782 C   0  0  0  0  0  0  0  0  0  0  0  0
  -12.2913    8.9877   -0.0147 C   0  0  0  0  0  0  0  0  0  0  0  0
  -11.1742    9.7540   -0.2744 C   0  0  0  0  0  0  0  0  0  0  0  0
  -11.3655   11.0178   -0.8217 C   0  0  0  0  0  0  0  0  0  0  0  0
  -12.6244   11.5018   -1.1007 C   0  0  0  0  0  0  0  0  0  0  0  0
  -26.9066    9.0299   -2.7713 C   0  0  0  0  0  0  0  0  0  0  0  0
  -25.6446    9.1228   -1.9848 C   0  0  0  0  0  0  0  0  0  0  0  0
  -25.5797    8.7482   -0.6595 C   0  0  0  0  0  0  0  0  0  0  0  0
  -24.4172    8.8313    0.0733 C   0  0  0  0  0  0  0  0  0  0  0  0
  -24.4731    9.5896   -2.5440 C   0  0  0  0  0  0  0  0  0  0  0  0
  -23.3008    9.6788   -1.8236 C   0  0  0  0  0  0  0  0  0  0  0  0
  -23.2559    9.2996   -0.4997 C   0  0  0  0  0  0  0  0  0  0  0  0
  -20.4149    8.6692   -0.5770 C   0  0  1  0  0  0  0  0  0  0  0  0
  -20.2069    6.3278   -0.6020 C   0  0  2  0  0  0  0  0  0  0  0  0
  -21.1639    5.5683    0.3176 C   0  0  0  0  0  0  0  0  0  0  0  0
  -18.8247    6.3887   -0.0319 C   0  0  1  0  0  0  0  0  0  0  0  0
  -18.1915    7.6933   -0.4661 C   0  0  1  0  0  0  0  0  0  0  0  0
  -15.9900    8.7575   -0.5809 C   0  0  0  0  0  0  0  0  0  0  0  0
  -14.7490    8.6121    0.0005 C   0  0  0  0  0  0  0  0  0  0  0  0
  -13.6992   10.6860   -0.8175 C   0  0  0  0  0  0  0  0  0  0  0  0
  -19.0744    8.7740    0.1143 C   0  0  1  0  0  0  0  0  0  0  0  0
   -9.9121    9.3354   -0.0230 F   0  0  0  0  0  0  0  0  0  0  0  0
  -10.2979   11.7816   -1.0833 F   0  0  0  0  0  0  0  0  0  0  0  0
  -16.8215    7.8277   -0.0797 N   0  0  0  0  0  0  0  0  0  0  0  0
  -14.8635    7.5856    0.8489 N   0  0  0  0  0  0  0  0  0  0  0  0
  -16.1032    7.1295    0.7895 N   0  0  0  0  0  0  0  0  0  0  0  0
  -20.7202    7.4688   -1.1163 O   0  0  0  0  0  0  0  0  0  0  0  0
  -22.3307    5.3771   -0.4391 O   0  0  0  0  0  0  0  0  0  0  0  0
  -18.9513    6.3487    1.3657 O   0  0  0  0  0  0  0  0  0  0  0  0
  -18.5075   10.0384   -0.0465 O   0  0  0  0  0  0  0  0  0  0  0  0
  -21.7325    9.4101    0.4361 S   0  0  0  0  0  0  0  0  0  0  0  0
  1  2  2  0
 19  1  1  0
  1 20  1  0
  2  3  1  0
  3  4  2  0
  3 22  1  0
  5  4  1  0
  4 23  1  0
 20  5  2  0
  7  6  1  0
  8  7  2  0
 10  7  1  0
  9  8  1  0
 12  9  2  0
 11 10  2  0
 12 11  1  0
 31 12  1  0
 21 13  1  0
 13 27  1  0
 13 31  1  1
 14 15  1  1
 16 14  1  0
 14 27  1  0
 15 28  1  0
 17 16  1  0
 16 29  1  1
 17 21  1  0
 17 24  1  1
 18 19  2  0
 18 24  1  0
 19 25  1  0
 21 30  1  6
 24 26  1  0
 25 26  2  0
M  END
$$$$
