
     RDKit          3D

 31 34  0  0  0  0  0  0  0  0999 V2000
  -13.2549    9.1232    0.3669 C   0  0  0  0  0  0  0  0  0  0  0  0
  -12.6223    9.5667    1.4878 C   0  0  0  0  0  0  0  0  0  0  0  0
  -11.2289    9.5648    1.5471 C   0  0  0  0  0  0  0  0  0  0  0  0
  -10.4651    9.1135    0.4714 C   0  0  0  0  0  0  0  0  0  0  0  0
  -11.1071    8.6646   -0.6638 C   0  0  0  0  0  0  0  0  0  0  0  0
  -26.7571    8.9960   -3.6165 C   0  0  0  0  0  0  0  0  0  0  0  0
  -25.4537    9.2252   -2.9766 C   0  0  0  0  0  0  0  0  0  0  0  0
  -24.8947    8.2044   -2.2402 C   0  0  0  0  0  0  0  0  0  0  0  0
  -23.6671    8.4092   -1.6328 C   0  0  0  0  0  0  0  0  0  0  0  0
  -24.8068   10.4286   -3.1085 C   0  0  0  0  0  0  0  0  0  0  0  0
  -23.5832   10.6215   -2.4984 C   0  0  0  0  0  0  0  0  0  0  0  0
  -22.9987    9.6226   -1.7568 C   0  0  0  0  0  0  0  0  0  0  0  0
  -20.3131    8.5213   -1.5601 C   0  0  1  0  0  0  0  0  0  0  0  0
  -19.6916    6.3676   -0.9950 C   0  0  2  0  0  0  0  0  0  0  0  0
  -20.2117    5.1994   -0.1469 C   0  0  0  0  0  0  0  0  0  0  0  0
  -18.3366    6.7655   -0.5208 C   0  0  1  0  0  0  0  0  0  0  0  0
  -17.8658    7.9996   -1.2260 C   0  0  1  0  0  0  0  0  0  0  0  0
  -15.4594    8.3644   -0.6548 C   0  0  0  0  0  0  0  0  0  0  0  0
  -14.7116    9.1061    0.2580 C   0  0  0  0  0  0  0  0  0  0  0  0
  -12.4633    8.6805   -0.6866 C   0  0  0  0  0  0  0  0  0  0  0  0
  -18.9144    9.0254   -1.4840 C   0  0  1  0  0  0  0  0  0  0  0  0
  -10.5440    9.9909    2.6292 F   0  0  0  0  0  0  0  0  0  0  0  0
   -9.1200    9.0917    0.4821 F   0  0  0  0  0  0  0  0  0  0  0  0
  -16.7694    8.6001   -0.4580 N   0  0  0  0  0  0  0  0  0  0  0  0
  -15.6285    9.7699    0.9794 N   0  0  0  0  0  0  0  0  0  0  0  0
  -16.8568    9.4606    0.5434 N   0  0  0  0  0  0  0  0  0  0  0  0
  -20.5682    7.4177   -0.7789 O   0  0  0  0  0  0  0  0  0  0  0  0
  -21.5963    5.2041   -0.1133 O   0  0  0  0  0  0  0  0  0  0  0  0
  -18.4051    7.0635    0.8514 O   0  0  0  0  0  0  0  0  0  0  0  0
  -18.6231    9.6264   -2.7308 O   0  0  0  0  0  0  0  0  0  0  0  0
  -21.4123    9.8530   -0.9583 S   0  0  0  0  0  0  0  0  0  0  0  0
  1  2  2  0
 19  1  1  0
  1 20  1  0
  2  3  1  0
  3  4  2  0
  3 22  1  0
  5  4  1  0
  4 23  1  0
 20  5  2  0
  6  7  1  6
  8  7  2  0
 10  7  1  0
  9  8  1  0
 12  9  2  0
 11 10  2  0
 12 11  1  0
 31 12  1  0
 21 13  1  0
 13 27  1  0
 13 31  1  1
 14 15  1  0
 16 14  1  0
 14 27  1  1
 15 28  1  6
 17 16  1  0
 16 29  1  1
 17 21  1  0
 17 24  1  1
 18 19  2  0
 18 24  1  0
 19 25  1  0
 21 30  1  6
 24 26  1  0
 25 26  2  0
M  END
$$$$
