
     RDKit          3D

 31 34  0  0  0  0  0  0  0  0999 V2000
  -13.5285    8.7541    0.2305 C   0  0  0  0  0  0  0  0  0  0  0  0
  -13.3335    7.7806    1.1851 C   0  0  0  0  0  0  0  0  0  0  0  0
  -12.0761    7.4045    1.6094 C   0  0  0  0  0  0  0  0  0  0  0  0
  -10.9798    8.0432    1.0408 C   0  0  0  0  0  0  0  0  0  0  0  0
  -11.1297    9.0220    0.0834 C   0  0  0  0  0  0  0  0  0  0  0  0
  -26.7557    6.4285   -3.6721 C   0  0  0  0  0  0  0  0  0  0  0  0
  -25.6062    7.2529   -3.2047 C   0  0  0  0  0  0  0  0  0  0  0  0
  -25.7079    8.1040   -2.1246 C   0  0  0  0  0  0  0  0  0  0  0  0
  -24.6500    8.8686   -1.6872 C   0  0  0  0  0  0  0  0  0  0  0  0
  -24.3776    7.2070   -3.8303 C   0  0  0  0  0  0  0  0  0  0  0  0
  -23.3084    7.9664   -3.4044 C   0  0  0  0  0  0  0  0  0  0  0  0
  -23.4298    8.8113   -2.3227 C   0  0  0  0  0  0  0  0  0  0  0  0
  -20.5500    8.7592   -1.8997 C   0  0  1  0  0  0  0  0  0  0  0  0
  -20.1811    7.1130   -0.2627 C   0  0  2  0  0  0  0  0  0  0  0  0
  -21.1998    7.0727    0.8771 C   0  0  0  0  0  0  0  0  0  0  0  0
  -18.8964    7.7487    0.1669 C   0  0  1  0  0  0  0  0  0  0  0  0
  -18.3008    8.4640   -1.0268 C   0  0  1  0  0  0  0  0  0  0  0  0
  -15.9532    8.3092   -0.3507 C   0  0  0  0  0  0  0  0  0  0  0  0
  -14.8677    9.1474   -0.2149 C   0  0  0  0  0  0  0  0  0  0  0  0
  -12.4134    9.3515   -0.2970 C   0  0  0  0  0  0  0  0  0  0  0  0
  -19.3260    9.5037   -1.4170 C   0  0  1  0  0  0  0  0  0  0  0  0
  -11.8632    6.4507    2.5455 F   0  0  0  0  0  0  0  0  0  0  0  0
   -9.7485    7.6967    1.4352 F   0  0  0  0  0  0  0  0  0  0  0  0
  -17.0083    9.0231   -0.7800 N   0  0  0  0  0  0  0  0  0  0  0  0
  -15.2996   10.3615   -0.5699 N   0  0  0  0  0  0  0  0  0  0  0  0
  -16.5758   10.2708   -0.9036 N   0  0  0  0  0  0  0  0  0  0  0  0
  -20.6967    7.4922   -1.4544 O   0  0  0  0  0  0  0  0  0  0  0  0
  -21.4059    5.7095    1.1413 O   0  0  0  0  0  0  0  0  0  0  0  0
  -19.2082    8.6678    1.1812 O   0  0  0  0  0  0  0  0  0  0  0  0
  -18.8302   10.3700   -2.3916 O   0  0  0  0  0  0  0  0  0  0  0  0
  -22.0403    9.7947   -1.7651 S   0  0  0  0  0  0  0  0  0  0  0  0
  1  2  2  0
 19  1  1  0
  1 20  1  0
  2  3  1  0
  3  4  2  0
  3 22  1  0
  5  4  1  0
  4 23  1  0
 20  5  2  0
  7  6  1  0
  8  7  2  0
 10  7  1  0
  9  8  1  0
 12  9  2  0
 11 10  2  0
 12 11  1  0
 31 12  1  0
 21 13  1  0
 13 27  1  0
 13 31  1  1
 14 15  1  1
 16 14  1  0
 14 27  1  0
 15 28  1  0
 17 16  1  0
 16 29  1  1
 17 21  1  0
 17 24  1  1
 18 19  2  0
 18 24  1  0
 19 25  1  0
 21 30  1  6
 24 26  1  0
 25 26  2  0
M  END
$$$$
