
     RDKit          3D

 31 34  0  0  0  0  0  0  0  0999 V2000
  -14.1289    8.7644    0.1266 C   0  0  0  0  0  0  0  0  0  0  0  0
  -13.0935    9.5925    0.4994 C   0  0  0  0  0  0  0  0  0  0  0  0
  -11.8892    9.1055    0.9631 C   0  0  0  0  0  0  0  0  0  0  0  0
  -11.7356    7.7263    1.0496 C   0  0  0  0  0  0  0  0  0  0  0  0
  -12.7451    6.8623    0.6873 C   0  0  0  0  0  0  0  0  0  0  0  0
  -27.4820    7.5593   -3.6281 C   0  0  0  0  0  0  0  0  0  0  0  0
  -26.2394    8.3091   -3.2913 C   0  0  0  0  0  0  0  0  0  0  0  0
  -25.2703    7.7840   -2.4629 C   0  0  0  0  0  0  0  0  0  0  0  0
  -24.1197    8.4710   -2.1474 C   0  0  0  0  0  0  0  0  0  0  0  0
  -25.9940    9.5706   -3.7924 C   0  0  0  0  0  0  0  0  0  0  0  0
  -24.8468   10.2716   -3.4860 C   0  0  0  0  0  0  0  0  0  0  0  0
  -23.8897    9.7297   -2.6559 C   0  0  0  0  0  0  0  0  0  0  0  0
  -21.0108    9.4588   -2.3189 C   0  0  1  0  0  0  0  0  0  0  0  0
  -20.8898    7.7933   -0.6644 C   0  0  2  0  0  0  0  0  0  0  0  0
  -21.9640    7.8600    0.4220 C   0  0  0  0  0  0  0  0  0  0  0  0
  -19.5721    8.3016   -0.1701 C   0  0  1  0  0  0  0  0  0  0  0  0
  -18.8489    8.9481   -1.3322 C   0  0  1  0  0  0  0  0  0  0  0  0
  -16.5573    8.5606   -0.5637 C   0  0  0  0  0  0  0  0  0  0  0  0
  -15.4052    9.2901   -0.3647 C   0  0  0  0  0  0  0  0  0  0  0  0
  -13.9241    7.4133    0.2318 C   0  0  0  0  0  0  0  0  0  0  0  0
  -19.7453   10.0816   -1.7747 C   0  0  1  0  0  0  0  0  0  0  0  0
  -10.8600    9.9018    1.3342 F   0  0  0  0  0  0  0  0  0  0  0  0
  -10.5765    7.2278    1.4966 F   0  0  0  0  0  0  0  0  0  0  0  0
  -17.5217    9.3784   -1.0200 N   0  0  0  0  0  0  0  0  0  0  0  0
  -15.7062   10.5458   -0.7100 N   0  0  0  0  0  0  0  0  0  0  0  0
  -16.9698   10.5818   -1.0979 N   0  0  0  0  0  0  0  0  0  0  0  0
  -21.3043    8.2149   -1.8810 O   0  0  0  0  0  0  0  0  0  0  0  0
  -22.7645    6.7245    0.2211 O   0  0  0  0  0  0  0  0  0  0  0  0
  -19.8427    9.2526    0.8265 O   0  0  0  0  0  0  0  0  0  0  0  0
  -19.1175   10.8894   -2.7231 O   0  0  0  0  0  0  0  0  0  0  0  0
  -22.3964   10.6370   -2.2610 S   0  0  0  0  0  0  0  0  0  0  0  0
  1  2  2  0
 19  1  1  0
  1 20  1  0
  2  3  1  0
  3  4  2  0
  3 22  1  0
  5  4  1  0
  4 23  1  0
 20  5  2  0
  7  6  1  0
  8  7  2  0
 10  7  1  0
  9  8  1  0
 12  9  2  0
 11 10  2  0
 12 11  1  0
 31 12  1  0
 21 13  1  0
 13 27  1  0
 13 31  1  1
 14 15  1  1
 16 14  1  0
 14 27  1  0
 15 28  1  0
 17 16  1  0
 16 29  1  1
 17 21  1  0
 17 24  1  1
 18 19  2  0
 18 24  1  0
 19 25  1  0
 21 30  1  6
 24 26  1  0
 25 26  2  0
M  END
$$$$
