
     RDKit          3D

 31 34  0  0  0  0  0  0  0  0999 V2000
  -13.3287    9.1689    0.4644 C   0  0  0  0  0  0  0  0  0  0  0  0
  -12.7121    9.5733    1.6087 C   0  0  0  0  0  0  0  0  0  0  0  0
  -11.3199    9.5599    1.6909 C   0  0  0  0  0  0  0  0  0  0  0  0
  -10.5411    9.1366    0.6146 C   0  0  0  0  0  0  0  0  0  0  0  0
  -11.1669    8.7272   -0.5443 C   0  0  0  0  0  0  0  0  0  0  0  0
  -26.8353    8.6813   -3.5491 C   0  0  0  0  0  0  0  0  0  0  0  0
  -25.5227    8.9402   -2.9399 C   0  0  0  0  0  0  0  0  0  0  0  0
  -25.4600    9.1551   -1.5809 C   0  0  0  0  0  0  0  0  0  0  0  0
  -24.2287    9.3999   -0.9962 C   0  0  0  0  0  0  0  0  0  0  0  0
  -24.3842    8.9676   -3.7062 C   0  0  0  0  0  0  0  0  0  0  0  0
  -23.1620    9.2128   -3.1123 C   0  0  0  0  0  0  0  0  0  0  0  0
  -23.0658    9.4310   -1.7586 C   0  0  0  0  0  0  0  0  0  0  0  0
  -20.3912    8.3489   -1.3857 C   0  0  1  0  0  0  0  0  0  0  0  0
  -19.7622    6.2961   -0.5288 C   0  0  2  0  0  0  0  0  0  0  0  0
  -20.2752    5.2570    0.4769 C   0  0  0  0  0  0  0  0  0  0  0  0
  -18.4055    6.7581   -0.1223 C   0  0  1  0  0  0  0  0  0  0  0  0
  -17.9410    7.8823   -0.9955 C   0  0  1  0  0  0  0  0  0  0  0  0
  -15.5354    8.2893   -0.4501 C   0  0  0  0  0  0  0  0  0  0  0  0
  -14.7834    9.1652    0.3308 C   0  0  0  0  0  0  0  0  0  0  0  0
  -12.5224    8.7533   -0.5891 C   0  0  0  0  0  0  0  0  0  0  0  0
  -18.9931    8.8606   -1.3884 C   0  0  1  0  0  0  0  0  0  0  0  0
  -10.6506    9.9478    2.7969 F   0  0  0  0  0  0  0  0  0  0  0  0
   -9.1966    9.1051    0.6470 F   0  0  0  0  0  0  0  0  0  0  0  0
  -16.8419    8.5857   -0.3249 N   0  0  0  0  0  0  0  0  0  0  0  0
  -15.6942    9.9677    0.9036 N   0  0  0  0  0  0  0  0  0  0  0  0
  -16.9231    9.6131    0.5050 N   0  0  0  0  0  0  0  0  0  0  0  0
  -20.6398    7.3649   -0.4567 O   0  0  0  0  0  0  0  0  0  0  0  0
  -21.5309    4.8041    0.1073 O   0  0  0  0  0  0  0  0  0  0  0  0
  -18.4674    7.2447    1.1952 O   0  0  0  0  0  0  0  0  0  0  0  0
  -18.7097    9.2820   -2.7085 O   0  0  0  0  0  0  0  0  0  0  0  0
  -21.4900    9.7501   -0.9697 S   0  0  0  0  0  0  0  0  0  0  0  0
  1  2  2  0
 19  1  1  0
  1 20  1  0
  2  3  1  0
  3  4  2  0
  3 22  1  0
  5  4  1  0
  4 23  1  0
 20  5  2  0
  6  7  1  6
  8  7  2  0
 10  7  1  0
  9  8  1  0
 12  9  2  0
 11 10  2  0
 12 11  1  0
 31 12  1  0
 21 13  1  0
 13 27  1  0
 13 31  1  1
 14 15  1  0
 16 14  1  0
 14 27  1  1
 15 28  1  6
 17 16  1  0
 16 29  1  1
 17 21  1  0
 17 24  1  1
 18 19  2  0
 18 24  1  0
 19 25  1  0
 21 30  1  6
 24 26  1  0
 25 26  2  0
M  END
$$$$
