
     RDKit          3D

 31 34  0  0  0  0  0  0  0  0999 V2000
  -13.2414    9.0596    0.4189 C   0  0  0  0  0  0  0  0  0  0  0  0
  -12.1999    8.9064    1.3071 C   0  0  0  0  0  0  0  0  0  0  0  0
  -10.9175    9.3253    1.0199 C   0  0  0  0  0  0  0  0  0  0  0  0
  -10.6893    9.9210   -0.2155 C   0  0  0  0  0  0  0  0  0  0  0  0
  -11.7020   10.0937   -1.1329 C   0  0  0  0  0  0  0  0  0  0  0  0
  -26.3097    9.5434   -3.6446 C   0  0  0  0  0  0  0  0  0  0  0  0
  -25.2031    9.5182   -2.6473 C   0  0  0  0  0  0  0  0  0  0  0  0
  -25.4185    9.1965   -1.3239 C   0  0  0  0  0  0  0  0  0  0  0  0
  -24.4009    9.1712   -0.3970 C   0  0  0  0  0  0  0  0  0  0  0  0
  -23.9027    9.8164   -2.9978 C   0  0  0  0  0  0  0  0  0  0  0  0
  -22.8725    9.7955   -2.0814 C   0  0  0  0  0  0  0  0  0  0  0  0
  -23.1079    9.4715   -0.7630 C   0  0  0  0  0  0  0  0  0  0  0  0
  -20.2743    8.8831   -0.4474 C   0  0  1  0  0  0  0  0  0  0  0  0
  -19.9283    6.5732   -0.7135 C   0  0  2  0  0  0  0  0  0  0  0  0
  -20.9663    5.6675   -0.0495 C   0  0  0  0  0  0  0  0  0  0  0  0
  -18.6531    6.6176    0.0682 C   0  0  1  0  0  0  0  0  0  0  0  0
  -18.0394    7.9902   -0.1063 C   0  0  1  0  0  0  0  0  0  0  0  0
  -15.6713    8.6094   -0.1362 C   0  0  0  0  0  0  0  0  0  0  0  0
  -14.6008    8.6115    0.7318 C   0  0  0  0  0  0  0  0  0  0  0  0
  -12.9611    9.6531   -0.7843 C   0  0  0  0  0  0  0  0  0  0  0  0
  -19.0610    8.9542    0.4517 C   0  0  1  0  0  0  0  0  0  0  0  0
   -9.8810    9.1840    1.8783 F   0  0  0  0  0  0  0  0  0  0  0  0
   -9.4536   10.3364   -0.5189 F   0  0  0  0  0  0  0  0  0  0  0  0
  -16.7530    8.1299    0.5018 N   0  0  0  0  0  0  0  0  0  0  0  0
  -15.0685    8.1273    1.8865 N   0  0  0  0  0  0  0  0  0  0  0  0
  -16.3513    7.8454    1.7333 N   0  0  0  0  0  0  0  0  0  0  0  0
  -20.4246    7.7480   -1.1645 O   0  0  0  0  0  0  0  0  0  0  0  0
  -21.9628    5.4739   -1.0190 O   0  0  0  0  0  0  0  0  0  0  0  0
  -18.9851    6.3987    1.4146 O   0  0  0  0  0  0  0  0  0  0  0  0
  -18.5513   10.2503    0.5303 O   0  0  0  0  0  0  0  0  0  0  0  0
  -21.7698    9.4389    0.4276 S   0  0  0  0  0  0  0  0  0  0  0  0
  1  2  2  0
 19  1  1  0
  1 20  1  0
  2  3  1  0
  3  4  2  0
  3 22  1  0
  5  4  1  0
  4 23  1  0
 20  5  2  0
  7  6  1  0
  8  7  2  0
 10  7  1  0
  9  8  1  0
 12  9  2  0
 11 10  2  0
 12 11  1  0
 31 12  1  0
 21 13  1  0
 13 27  1  0
 13 31  1  1
 14 15  1  1
 16 14  1  0
 14 27  1  0
 15 28  1  0
 17 16  1  0
 16 29  1  1
 17 21  1  0
 17 24  1  1
 18 19  2  0
 18 24  1  0
 19 25  1  0
 21 30  1  6
 24 26  1  0
 25 26  2  0
M  END
$$$$
