
     RDKit          3D

 31 34  0  0  0  0  0  0  0  0999 V2000
  -13.3769    9.0566    0.3810 C   0  0  0  0  0  0  0  0  0  0  0  0
  -12.7397    9.8687    1.2929 C   0  0  0  0  0  0  0  0  0  0  0  0
  -11.4951    9.5680    1.8057 C   0  0  0  0  0  0  0  0  0  0  0  0
  -10.8789    8.3989    1.3735 C   0  0  0  0  0  0  0  0  0  0  0  0
  -11.4805    7.5586    0.4630 C   0  0  0  0  0  0  0  0  0  0  0  0
  -26.5019    6.7432   -4.1002 C   0  0  0  0  0  0  0  0  0  0  0  0
  -25.3897    7.4508   -3.4059 C   0  0  0  0  0  0  0  0  0  0  0  0
  -25.2519    8.8219   -3.4548 C   0  0  0  0  0  0  0  0  0  0  0  0
  -24.2269    9.4824   -2.8158 C   0  0  0  0  0  0  0  0  0  0  0  0
  -24.4382    6.7686   -2.6765 C   0  0  0  0  0  0  0  0  0  0  0  0
  -23.4057    7.4154   -2.0308 C   0  0  0  0  0  0  0  0  0  0  0  0
  -23.2848    8.7867   -2.0915 C   0  0  0  0  0  0  0  0  0  0  0  0
  -20.3952    8.8143   -1.7388 C   0  0  1  0  0  0  0  0  0  0  0  0
  -19.7435    6.8687   -0.5915 C   0  0  2  0  0  0  0  0  0  0  0  0
  -20.6466    6.4511    0.5697 C   0  0  0  0  0  0  0  0  0  0  0  0
  -18.4815    7.5102   -0.1067 C   0  0  1  0  0  0  0  0  0  0  0  0
  -18.0587    8.5491   -1.1232 C   0  0  1  0  0  0  0  0  0  0  0  0
  -15.7502    8.5048   -0.3102 C   0  0  0  0  0  0  0  0  0  0  0  0
  -14.6993    9.3834   -0.1585 C   0  0  0  0  0  0  0  0  0  0  0  0
  -12.7247    7.9166   -0.0110 C   0  0  0  0  0  0  0  0  0  0  0  0
  -19.1975    9.5417   -1.1714 C   0  0  1  0  0  0  0  0  0  0  0  0
  -10.8524   10.3521    2.7020 F   0  0  0  0  0  0  0  0  0  0  0  0
   -9.6706    8.0840    1.8557 F   0  0  0  0  0  0  0  0  0  0  0  0
  -16.7994    9.1615   -0.8346 N   0  0  0  0  0  0  0  0  0  0  0  0
  -15.1456   10.5632   -0.6004 N   0  0  0  0  0  0  0  0  0  0  0  0
  -16.3974   10.4145   -0.9994 N   0  0  0  0  0  0  0  0  0  0  0  0
  -20.3956    7.4692   -1.6133 O   0  0  0  0  0  0  0  0  0  0  0  0
  -21.5751    5.5572    0.0134 O   0  0  0  0  0  0  0  0  0  0  0  0
  -18.7736    8.1210    1.1231 O   0  0  0  0  0  0  0  0  0  0  0  0
  -18.8661   10.6633   -1.9319 O   0  0  0  0  0  0  0  0  0  0  0  0
  -21.9470    9.6289   -1.2490 S   0  0  0  0  0  0  0  0  0  0  0  0
  1  2  2  0
 19  1  1  0
  1 20  1  0
  2  3  1  0
  3  4  2  0
  3 22  1  0
  5  4  1  0
  4 23  1  0
 20  5  2  0
  7  6  1  0
  8  7  2  0
 10  7  1  0
  9  8  1  0
 12  9  2  0
 11 10  2  0
 12 11  1  0
 31 12  1  0
 21 13  1  0
 13 27  1  0
 13 31  1  1
 14 15  1  1
 16 14  1  0
 14 27  1  0
 15 28  1  0
 17 16  1  0
 16 29  1  1
 17 21  1  0
 17 24  1  1
 18 19  2  0
 18 24  1  0
 19 25  1  0
 21 30  1  6
 24 26  1  0
 25 26  2  0
M  END
$$$$
