
     RDKit          3D

 31 34  0  0  0  0  0  0  0  0999 V2000
  -13.7096    9.0990    0.4301 C   0  0  0  0  0  0  0  0  0  0  0  0
  -13.3975   10.3750    0.0162 C   0  0  0  0  0  0  0  0  0  0  0  0
  -12.2290   11.0065    0.3883 C   0  0  0  0  0  0  0  0  0  0  0  0
  -11.3485   10.3128    1.2109 C   0  0  0  0  0  0  0  0  0  0  0  0
  -11.6214    9.0354    1.6478 C   0  0  0  0  0  0  0  0  0  0  0  0
  -26.7738   12.0984   -0.4898 C   0  0  0  0  0  0  0  0  0  0  0  0
  -25.6319   11.1772   -0.2304 C   0  0  0  0  0  0  0  0  0  0  0  0
  -25.6751   10.2201    0.7612 C   0  0  0  0  0  0  0  0  0  0  0  0
  -24.6240    9.3657    1.0064 C   0  0  0  0  0  0  0  0  0  0  0  0
  -24.4697   11.2347   -0.9713 C   0  0  0  0  0  0  0  0  0  0  0  0
  -23.4082   10.3861   -0.7382 C   0  0  0  0  0  0  0  0  0  0  0  0
  -23.4704    9.4359    0.2578 C   0  0  0  0  0  0  0  0  0  0  0  0
  -20.6764    8.9489   -0.3992 C   0  0  1  0  0  0  0  0  0  0  0  0
  -20.2711    8.0233   -2.5217 C   0  0  2  0  0  0  0  0  0  0  0  0
  -21.1995    6.8801   -2.9337 C   0  0  0  0  0  0  0  0  0  0  0  0
  -18.9248    7.5192   -2.1063 C   0  0  1  0  0  0  0  0  0  0  0  0
  -18.3856    8.4406   -1.0333 C   0  0  1  0  0  0  0  0  0  0  0  0
  -16.1286    9.0643   -0.3199 C   0  0  0  0  0  0  0  0  0  0  0  0
  -14.9533    8.4356    0.0303 C   0  0  0  0  0  0  0  0  0  0  0  0
  -12.8065    8.4608    1.2398 C   0  0  0  0  0  0  0  0  0  0  0  0
  -19.3807    8.3520    0.1009 C   0  0  1  0  0  0  0  0  0  0  0  0
  -11.9039   12.2591   -0.0073 F   0  0  0  0  0  0  0  0  0  0  0  0
  -10.2074   10.9030    1.5866 F   0  0  0  0  0  0  0  0  0  0  0  0
  -17.0498    8.1344   -0.6259 N   0  0  0  0  0  0  0  0  0  0  0  0
  -15.1971    7.1255   -0.0742 N   0  0  0  0  0  0  0  0  0  0  0  0
  -16.4494    6.9627   -0.4659 N   0  0  0  0  0  0  0  0  0  0  0  0
  -20.8560    8.9581   -1.7382 O   0  0  0  0  0  0  0  0  0  0  0  0
  -21.4832    7.1043   -4.2901 O   0  0  0  0  0  0  0  0  0  0  0  0
  -19.1077    6.2256   -1.5923 O   0  0  0  0  0  0  0  0  0  0  0  0
  -18.9158    9.0076    1.2412 O   0  0  0  0  0  0  0  0  0  0  0  0
  -22.0942    8.3293    0.5586 S   0  0  0  0  0  0  0  0  0  0  0  0
  1  2  2  0
 19  1  1  0
  1 20  1  0
  2  3  1  0
  3  4  2  0
  3 22  1  0
  5  4  1  0
  4 23  1  0
 20  5  2  0
  7  6  1  0
  8  7  2  0
 10  7  1  0
  9  8  1  0
 12  9  2  0
 11 10  2  0
 12 11  1  0
 31 12  1  0
 21 13  1  0
 13 27  1  0
 13 31  1  1
 14 15  1  1
 16 14  1  0
 14 27  1  0
 15 28  1  0
 17 16  1  0
 16 29  1  1
 17 21  1  0
 17 24  1  1
 18 19  2  0
 18 24  1  0
 19 25  1  0
 21 30  1  1
 24 26  1  0
 25 26  2  0
M  END
$$$$
