
     RDKit          3D

 31 34  0  0  0  0  0  0  0  0999 V2000
  -13.5667    8.9120    0.0796 C   0  0  0  0  0  0  0  0  0  0  0  0
  -13.2583    8.0930    1.1223 C   0  0  0  0  0  0  0  0  0  0  0  0
  -11.9678    8.0960    1.6513 C   0  0  0  0  0  0  0  0  0  0  0  0
  -10.9793    8.9287    1.1282 C   0  0  0  0  0  0  0  0  0  0  0  0
  -11.2929    9.7582    0.0718 C   0  0  0  0  0  0  0  0  0  0  0  0
  -26.7069    7.3792   -4.8663 C   0  0  0  0  0  0  0  0  0  0  0  0
  -25.4169    7.8206   -4.3168 C   0  0  0  0  0  0  0  0  0  0  0  0
  -25.3518    8.1587   -2.9832 C   0  0  0  0  0  0  0  0  0  0  0  0
  -24.1417    8.5760   -2.4548 C   0  0  0  0  0  0  0  0  0  0  0  0
  -24.3012    7.8950   -5.1129 C   0  0  0  0  0  0  0  0  0  0  0  0
  -23.0999    8.3125   -4.5751 C   0  0  0  0  0  0  0  0  0  0  0  0
  -23.0021    8.6568   -3.2480 C   0  0  0  0  0  0  0  0  0  0  0  0
  -20.3859    7.7225   -2.3838 C   0  0  1  0  0  0  0  0  0  0  0  0
  -19.8507    6.0907   -0.8363 C   0  0  2  0  0  0  0  0  0  0  0  0
  -20.4292    5.4807    0.4472 C   0  0  0  0  0  0  0  0  0  0  0  0
  -18.4943    6.6417   -0.5609 C   0  0  1  0  0  0  0  0  0  0  0  0
  -17.9659    7.3788   -1.7523 C   0  0  1  0  0  0  0  0  0  0  0  0
  -15.7043    7.8390   -0.7915 C   0  0  0  0  0  0  0  0  0  0  0  0
  -14.9038    8.9441   -0.5079 C   0  0  0  0  0  0  0  0  0  0  0  0
  -12.5578    9.7291   -0.4175 C   0  0  0  0  0  0  0  0  0  0  0  0
  -18.9731    8.1754   -2.5069 C   0  0  1  0  0  0  0  0  0  0  0  0
  -11.6004    7.3075    2.6833 F   0  0  0  0  0  0  0  0  0  0  0  0
   -9.7214    8.9660    1.6038 F   0  0  0  0  0  0  0  0  0  0  0  0
  -16.8679    8.2531   -1.3252 N   0  0  0  0  0  0  0  0  0  0  0  0
  -15.6406    9.9978   -0.8934 N   0  0  0  0  0  0  0  0  0  0  0  0
  -16.8142    9.5740   -1.3812 N   0  0  0  0  0  0  0  0  0  0  0  0
  -20.6961    7.1323   -1.1802 O   0  0  0  0  0  0  0  0  0  0  0  0
  -21.3017    4.4490    0.1426 O   0  0  0  0  0  0  0  0  0  0  0  0
  -18.5843    7.5612    0.4987 O   0  0  0  0  0  0  0  0  0  0  0  0
  -18.6331    8.1009   -3.8779 O   0  0  0  0  0  0  0  0  0  0  0  0
  -21.4531    9.2000   -2.5318 S   0  0  0  0  0  0  0  0  0  0  0  0
  1  2  2  0
 19  1  1  0
  1 20  1  0
  2  3  1  0
  3  4  2  0
  3 22  1  0
  5  4  1  0
  4 23  1  0
 20  5  2  0
  6  7  1  6
  8  7  2  0
 10  7  1  0
  9  8  1  0
 12  9  2  0
 11 10  2  0
 12 11  1  0
 31 12  1  0
 21 13  1  0
 13 27  1  0
 13 31  1  1
 14 15  1  0
 16 14  1  0
 14 27  1  1
 15 28  1  6
 17 16  1  0
 16 29  1  1
 17 21  1  0
 17 24  1  1
 18 19  2  0
 18 24  1  0
 19 25  1  0
 21 30  1  6
 24 26  1  0
 25 26  2  0
M  END
$$$$
