
     RDKit          3D

 31 34  0  0  0  0  0  0  0  0999 V2000
  -13.6818    8.5365    0.6528 C   0  0  0  0  0  0  0  0  0  0  0  0
  -12.4126    8.5672    0.1188 C   0  0  0  0  0  0  0  0  0  0  0  0
  -11.2931    8.8015    0.8898 C   0  0  0  0  0  0  0  0  0  0  0  0
  -11.4742    9.0117    2.2522 C   0  0  0  0  0  0  0  0  0  0  0  0
  -12.7256    8.9895    2.8271 C   0  0  0  0  0  0  0  0  0  0  0  0
  -26.8221   10.7364    1.4557 C   0  0  0  0  0  0  0  0  0  0  0  0
  -25.6502    9.9799    0.9321 C   0  0  0  0  0  0  0  0  0  0  0  0
  -25.7790    9.0181   -0.0475 C   0  0  0  0  0  0  0  0  0  0  0  0
  -24.7007    8.3153   -0.5360 C   0  0  0  0  0  0  0  0  0  0  0  0
  -24.3726   10.2036    1.4018 C   0  0  0  0  0  0  0  0  0  0  0  0
  -23.2825    9.5082    0.9229 C   0  0  0  0  0  0  0  0  0  0  0  0
  -23.4315    8.5505   -0.0565 C   0  0  0  0  0  0  0  0  0  0  0  0
  -20.6030    8.7969   -0.6997 C   0  0  1  0  0  0  0  0  0  0  0  0
  -19.9644    9.7544   -2.7495 C   0  0  2  0  0  0  0  0  0  0  0  0
  -20.7459    9.2783   -3.9747 C   0  0  0  0  0  0  0  0  0  0  0  0
  -18.6069    9.1284   -2.6827 C   0  0  1  0  0  0  0  0  0  0  0  0
  -18.2354    8.9600   -1.2250 C   0  0  1  0  0  0  0  0  0  0  0  0
  -16.0545    8.9820   -0.1135 C   0  0  0  0  0  0  0  0  0  0  0  0
  -14.8658    8.2872   -0.1735 C   0  0  0  0  0  0  0  0  0  0  0  0
  -13.8033    8.7499    2.0012 C   0  0  0  0  0  0  0  0  0  0  0  0
  -19.2924    8.0450   -0.6505 C   0  0  1  0  0  0  0  0  0  0  0  0
  -10.0381    8.8358    0.3848 F   0  0  0  0  0  0  0  0  0  0  0  0
  -10.4041    9.2413    3.0228 F   0  0  0  0  0  0  0  0  0  0  0  0
  -16.9071    8.4726   -1.0194 N   0  0  0  0  0  0  0  0  0  0  0  0
  -15.0323    7.3642   -1.1258 N   0  0  0  0  0  0  0  0  0  0  0  0
  -16.2526    7.4876   -1.6197 N   0  0  0  0  0  0  0  0  0  0  0  0
  -20.6904    9.7925   -1.6087 O   0  0  0  0  0  0  0  0  0  0  0  0
  -21.6769   10.2954   -4.2380 O   0  0  0  0  0  0  0  0  0  0  0  0
  -18.6970    7.8764   -3.3114 O   0  0  0  0  0  0  0  0  0  0  0  0
  -18.9733    7.6472    0.6479 O   0  0  0  0  0  0  0  0  0  0  0  0
  -22.0156    7.6499   -0.6833 S   0  0  0  0  0  0  0  0  0  0  0  0
  1  2  2  0
 19  1  1  0
  1 20  1  0
  2  3  1  0
  3  4  2  0
  3 22  1  0
  5  4  1  0
  4 23  1  0
 20  5  2  0
  7  6  1  0
  8  7  2  0
 10  7  1  0
  9  8  1  0
 12  9  2  0
 11 10  2  0
 12 11  1  0
 31 12  1  0
 21 13  1  0
 13 27  1  0
 13 31  1  6
 14 15  1  6
 16 14  1  0
 14 27  1  0
 15 28  1  0
 17 16  1  0
 16 29  1  1
 17 21  1  0
 17 24  1  6
 18 19  2  0
 18 24  1  0
 19 25  1  0
 21 30  1  1
 24 26  1  0
 25 26  2  0
M  END
$$$$
