
     RDKit          3D

 31 34  0  0  0  0  0  0  0  0999 V2000
  -13.3076    8.8576    0.2426 C   0  0  0  0  0  0  0  0  0  0  0  0
  -12.2527    8.6707    1.1082 C   0  0  0  0  0  0  0  0  0  0  0  0
  -10.9979    9.1892    0.8651 C   0  0  0  0  0  0  0  0  0  0  0  0
  -10.8124    9.9236   -0.3009 C   0  0  0  0  0  0  0  0  0  0  0  0
  -11.8399   10.1345   -1.1936 C   0  0  0  0  0  0  0  0  0  0  0  0
  -26.4154    9.7167   -3.4801 C   0  0  0  0  0  0  0  0  0  0  0  0
  -25.2736    9.6271   -2.5273 C   0  0  0  0  0  0  0  0  0  0  0  0
  -25.4463    9.7518   -1.1650 C   0  0  0  0  0  0  0  0  0  0  0  0
  -24.3960    9.6700   -0.2789 C   0  0  0  0  0  0  0  0  0  0  0  0
  -23.9814    9.4140   -2.9605 C   0  0  0  0  0  0  0  0  0  0  0  0
  -22.9187    9.3296   -2.0858 C   0  0  0  0  0  0  0  0  0  0  0  0
  -23.1116    9.4570   -0.7274 C   0  0  0  0  0  0  0  0  0  0  0  0
  -20.2933    8.7537   -0.5338 C   0  0  1  0  0  0  0  0  0  0  0  0
  -20.0658    6.4429   -0.9002 C   0  0  2  0  0  0  0  0  0  0  0  0
  -21.1245    5.5602   -0.2379 C   0  0  0  0  0  0  0  0  0  0  0  0
  -18.7664    6.3969   -0.1596 C   0  0  1  0  0  0  0  0  0  0  0  0
  -18.0938    7.7456   -0.3010 C   0  0  1  0  0  0  0  0  0  0  0  0
  -15.7480    8.4449   -0.2954 C   0  0  0  0  0  0  0  0  0  0  0  0
  -14.6374    8.3030    0.5083 C   0  0  0  0  0  0  0  0  0  0  0  0
  -13.0698    9.5893   -0.8917 C   0  0  0  0  0  0  0  0  0  0  0  0
  -19.0508    8.7325    0.3271 C   0  0  1  0  0  0  0  0  0  0  0  0
   -9.9488    9.0171    1.7024 F   0  0  0  0  0  0  0  0  0  0  0  0
   -9.6041   10.4377   -0.5604 F   0  0  0  0  0  0  0  0  0  0  0  0
  -16.7841    7.8012    0.2696 N   0  0  0  0  0  0  0  0  0  0  0  0
  -15.0355    7.5682    1.5514 N   0  0  0  0  0  0  0  0  0  0  0  0
  -16.3158    7.2775    1.3945 N   0  0  0  0  0  0  0  0  0  0  0  0
  -20.5195    7.6565   -1.2889 O   0  0  0  0  0  0  0  0  0  0  0  0
  -21.9824    5.1681   -1.2776 O   0  0  0  0  0  0  0  0  0  0  0  0
  -19.0665    6.1398    1.1875 O   0  0  0  0  0  0  0  0  0  0  0  0
  -18.4779    9.9996    0.4390 O   0  0  0  0  0  0  0  0  0  0  0  0
  -21.7330    9.3425    0.4107 S   0  0  0  0  0  0  0  0  0  0  0  0
  1  2  2  0
 19  1  1  0
  1 20  1  0
  2  3  1  0
  3  4  2  0
  3 22  1  0
  5  4  1  0
  4 23  1  0
 20  5  2  0
  7  6  1  0
  8  7  2  0
 10  7  1  0
  9  8  1  0
 12  9  2  0
 11 10  2  0
 12 11  1  0
 31 12  1  0
 21 13  1  0
 13 27  1  0
 13 31  1  1
 14 15  1  1
 16 14  1  0
 14 27  1  0
 15 28  1  0
 17 16  1  0
 16 29  1  1
 17 21  1  0
 17 24  1  1
 18 19  2  0
 18 24  1  0
 19 25  1  0
 21 30  1  6
 24 26  1  0
 25 26  2  0
M  END
$$$$
