
     RDKit          3D

 31 34  0  0  0  0  0  0  0  0999 V2000
  -13.6834    9.6128    0.1793 C   0  0  0  0  0  0  0  0  0  0  0  0
  -13.7271   10.9595    0.3731 C   0  0  0  0  0  0  0  0  0  0  0  0
  -12.5418   11.6808    0.5148 C   0  0  0  0  0  0  0  0  0  0  0  0
  -11.3027   11.0437    0.4613 C   0  0  0  0  0  0  0  0  0  0  0  0
  -11.2597    9.6791    0.2648 C   0  0  0  0  0  0  0  0  0  0  0  0
  -27.1457   10.4888   -0.4129 C   0  0  0  0  0  0  0  0  0  0  0  0
  -25.7071   10.3710   -0.1349 C   0  0  0  0  0  0  0  0  0  0  0  0
  -24.9404    9.5813   -0.9628 C   0  0  0  0  0  0  0  0  0  0  0  0
  -23.5839    9.4630   -0.7103 C   0  0  0  0  0  0  0  0  0  0  0  0
  -25.1387   11.0321    0.9253 C   0  0  0  0  0  0  0  0  0  0  0  0
  -23.7851   10.9067    1.1674 C   0  0  0  0  0  0  0  0  0  0  0  0
  -22.9927   10.1263    0.3597 C   0  0  0  0  0  0  0  0  0  0  0  0
  -20.5439    9.0239   -0.7594 C   0  0  1  0  0  0  0  0  0  0  0  0
  -20.2999    6.8403   -1.4776 C   0  0  2  0  0  0  0  0  0  0  0  0
  -20.9098    5.4589   -1.2055 C   0  0  0  0  0  0  0  0  0  0  0  0
  -18.8345    6.8008   -1.2126 C   0  0  1  0  0  0  0  0  0  0  0  0
  -18.2359    8.1690   -1.3209 C   0  0  1  0  0  0  0  0  0  0  0  0
  -16.0080    9.1479   -0.7479 C   0  0  0  0  0  0  0  0  0  0  0  0
  -14.8974    8.8149    0.0256 C   0  0  0  0  0  0  0  0  0  0  0  0
  -12.4318    9.0095    0.1311 C   0  0  0  0  0  0  0  0  0  0  0  0
  -19.0770    9.2766   -0.7880 C   0  0  1  0  0  0  0  0  0  0  0  0
  -12.5192   13.0162    0.7096 F   0  0  0  0  0  0  0  0  0  0  0  0
  -10.1338   11.6961    0.5936 F   0  0  0  0  0  0  0  0  0  0  0  0
  -16.9320    8.1750   -0.6482 N   0  0  0  0  0  0  0  0  0  0  0  0
  -15.2121    7.6282    0.5681 N   0  0  0  0  0  0  0  0  0  0  0  0
  -16.4316    7.2537    0.1590 N   0  0  0  0  0  0  0  0  0  0  0  0
  -20.8953    7.7063   -0.5758 O   0  0  0  0  0  0  0  0  0  0  0  0
  -22.2266    5.4180   -1.6332 O   0  0  0  0  0  0  0  0  0  0  0  0
  -18.6228    6.3503    0.1022 O   0  0  0  0  0  0  0  0  0  0  0  0
  -18.8680   10.4047   -1.6153 O   0  0  0  0  0  0  0  0  0  0  0  0
  -21.2353    9.9513    0.6569 S   0  0  0  0  0  0  0  0  0  0  0  0
  1  2  2  0
 19  1  1  0
  1 20  1  0
  2  3  1  0
  3  4  2  0
  3 22  1  0
  5  4  1  0
  4 23  1  0
 20  5  2  0
  6  7  1  6
  8  7  2  0
 10  7  1  0
  9  8  1  0
 12  9  2  0
 11 10  2  0
 12 11  1  0
 31 12  1  0
 21 13  1  0
 13 27  1  0
 13 31  1  1
 14 15  1  0
 16 14  1  0
 14 27  1  1
 15 28  1  6
 17 16  1  0
 16 29  1  1
 17 21  1  0
 17 24  1  1
 18 19  2  0
 18 24  1  0
 19 25  1  0
 21 30  1  6
 24 26  1  0
 25 26  2  0
M  END
$$$$
