
     RDKit          3D

 31 34  0  0  0  0  0  0  0  0999 V2000
  -13.0762    9.0251    0.1537 C   0  0  0  0  0  0  0  0  0  0  0  0
  -12.0296    8.8073    1.0220 C   0  0  0  0  0  0  0  0  0  0  0  0
  -10.7174    9.0469    0.6710 C   0  0  0  0  0  0  0  0  0  0  0  0
  -10.4638    9.5251   -0.6098 C   0  0  0  0  0  0  0  0  0  0  0  0
  -11.4806    9.7566   -1.5095 C   0  0  0  0  0  0  0  0  0  0  0  0
  -26.2536    8.4453   -3.8324 C   0  0  0  0  0  0  0  0  0  0  0  0
  -25.1216    8.7667   -2.9187 C   0  0  0  0  0  0  0  0  0  0  0  0
  -25.0230    8.2206   -1.6564 C   0  0  0  0  0  0  0  0  0  0  0  0
  -23.9799    8.5130   -0.8069 C   0  0  0  0  0  0  0  0  0  0  0  0
  -24.1112    9.6294   -3.2898 C   0  0  0  0  0  0  0  0  0  0  0  0
  -23.0598    9.9323   -2.4506 C   0  0  0  0  0  0  0  0  0  0  0  0
  -22.9789    9.3764   -1.1924 C   0  0  0  0  0  0  0  0  0  0  0  0
  -20.1227    8.9787   -0.7942 C   0  0  1  0  0  0  0  0  0  0  0  0
  -19.8499    6.6608   -0.5129 C   0  0  2  0  0  0  0  0  0  0  0  0
  -20.9265    5.9637    0.3198 C   0  0  0  0  0  0  0  0  0  0  0  0
  -18.5850    6.8477    0.2644 C   0  0  1  0  0  0  0  0  0  0  0  0
  -17.9236    8.1243   -0.2089 C   0  0  1  0  0  0  0  0  0  0  0  0
  -15.5200    8.5708   -0.3329 C   0  0  0  0  0  0  0  0  0  0  0  0
  -14.4674    8.7676    0.5346 C   0  0  0  0  0  0  0  0  0  0  0  0
  -12.7701    9.4968   -1.0962 C   0  0  0  0  0  0  0  0  0  0  0  0
  -18.9204    9.2205    0.0899 C   0  0  1  0  0  0  0  0  0  0  0  0
   -9.6752    8.8396    1.5089 F   0  0  0  0  0  0  0  0  0  0  0  0
   -9.1989    9.7658   -0.9755 F   0  0  0  0  0  0  0  0  0  0  0  0
  -16.6420    8.3635    0.3779 N   0  0  0  0  0  0  0  0  0  0  0  0
  -14.9863    8.6731    1.7627 N   0  0  0  0  0  0  0  0  0  0  0  0
  -16.2818    8.4323    1.6524 N   0  0  0  0  0  0  0  0  0  0  0  0
  -20.3005    7.7135   -1.2332 O   0  0  0  0  0  0  0  0  0  0  0  0
  -21.3991    4.9172   -0.4876 O   0  0  0  0  0  0  0  0  0  0  0  0
  -18.9429    6.9558    1.6176 O   0  0  0  0  0  0  0  0  0  0  0  0
  -18.3691   10.4843   -0.1217 O   0  0  0  0  0  0  0  0  0  0  0  0
  -21.6111    9.7650   -0.1030 S   0  0  0  0  0  0  0  0  0  0  0  0
  1  2  2  0
 19  1  1  0
  1 20  1  0
  2  3  1  0
  3  4  2  0
  3 22  1  0
  5  4  1  0
  4 23  1  0
 20  5  2  0
  7  6  1  0
  8  7  2  0
 10  7  1  0
  9  8  1  0
 12  9  2  0
 11 10  2  0
 12 11  1  0
 31 12  1  0
 21 13  1  0
 13 27  1  0
 13 31  1  1
 14 15  1  1
 16 14  1  0
 14 27  1  0
 15 28  1  0
 17 16  1  0
 16 29  1  1
 17 21  1  0
 17 24  1  1
 18 19  2  0
 18 24  1  0
 19 25  1  0
 21 30  1  6
 24 26  1  0
 25 26  2  0
M  END
$$$$
