
     RDKit          3D

 31 34  0  0  0  0  0  0  0  0999 V2000
  -13.2350    8.9514   -0.4537 C   0  0  0  0  0  0  0  0  0  0  0  0
  -12.6390    8.0222   -1.2773 C   0  0  0  0  0  0  0  0  0  0  0  0
  -11.2940    8.0600   -1.5809 C   0  0  0  0  0  0  0  0  0  0  0  0
  -10.5305    9.0807   -1.0255 C   0  0  0  0  0  0  0  0  0  0  0  0
  -11.0862   10.0303   -0.1970 C   0  0  0  0  0  0  0  0  0  0  0  0
  -26.1906    7.3665   -4.9793 C   0  0  0  0  0  0  0  0  0  0  0  0
  -25.1441    7.8352   -4.0281 C   0  0  0  0  0  0  0  0  0  0  0  0
  -25.2397    9.0451   -3.3738 C   0  0  0  0  0  0  0  0  0  0  0  0
  -24.2766    9.4846   -2.4937 C   0  0  0  0  0  0  0  0  0  0  0  0
  -24.0227    7.0806   -3.7526 C   0  0  0  0  0  0  0  0  0  0  0  0
  -23.0493    7.5067   -2.8737 C   0  0  0  0  0  0  0  0  0  0  0  0
  -23.1628    8.7193   -2.2293 C   0  0  0  0  0  0  0  0  0  0  0  0
  -20.3278    8.5179   -1.5990 C   0  0  1  0  0  0  0  0  0  0  0  0
  -19.8424    6.3359   -0.8714 C   0  0  2  0  0  0  0  0  0  0  0  0
  -20.8686    5.7095    0.0736 C   0  0  0  0  0  0  0  0  0  0  0  0
  -18.6215    6.7927   -0.1367 C   0  0  1  0  0  0  0  0  0  0  0  0
  -18.0731    8.0132   -0.8443 C   0  0  1  0  0  0  0  0  0  0  0  0
  -15.6482    8.3398   -0.9197 C   0  0  0  0  0  0  0  0  0  0  0  0
  -14.6646    8.9041   -0.1366 C   0  0  0  0  0  0  0  0  0  0  0  0
  -12.4362    9.9361    0.0668 C   0  0  0  0  0  0  0  0  0  0  0  0
  -19.1772    9.0427   -0.7706 C   0  0  1  0  0  0  0  0  0  0  0  0
  -10.6896    7.1570   -2.3874 F   0  0  0  0  0  0  0  0  0  0  0  0
   -9.2227    9.1400   -1.3043 F   0  0  0  0  0  0  0  0  0  0  0  0
  -16.8355    8.4860   -0.3065 N   0  0  0  0  0  0  0  0  0  0  0  0
  -15.2901    9.3830    0.9432 N   0  0  0  0  0  0  0  0  0  0  0  0
  -16.5820    9.1261    0.8270 N   0  0  0  0  0  0  0  0  0  0  0  0
  -20.3728    7.1806   -1.7852 O   0  0  0  0  0  0  0  0  0  0  0  0
  -21.7283    4.9684   -0.7524 O   0  0  0  0  0  0  0  0  0  0  0  0
  -19.0227    7.1234    1.1674 O   0  0  0  0  0  0  0  0  0  0  0  0
  -18.7437   10.2902   -1.2197 O   0  0  0  0  0  0  0  0  0  0  0  0
  -21.9017    9.2719   -1.0834 S   0  0  0  0  0  0  0  0  0  0  0  0
  1  2  2  0
 19  1  1  0
  1 20  1  0
  2  3  1  0
  3  4  2  0
  3 22  1  0
  5  4  1  0
  4 23  1  0
 20  5  2  0
  7  6  1  0
  8  7  2  0
 10  7  1  0
  9  8  1  0
 12  9  2  0
 11 10  2  0
 12 11  1  0
 31 12  1  0
 21 13  1  0
 13 27  1  0
 13 31  1  1
 14 15  1  1
 16 14  1  0
 14 27  1  0
 15 28  1  0
 17 16  1  0
 16 29  1  1
 17 21  1  0
 17 24  1  1
 18 19  2  0
 18 24  1  0
 19 25  1  0
 21 30  1  6
 24 26  1  0
 25 26  2  0
M  END
$$$$
