
     RDKit          3D

 31 34  0  0  0  0  0  0  0  0999 V2000
  -13.1721    8.8190    0.3214 C   0  0  0  0  0  0  0  0  0  0  0  0
  -12.4590    9.3289    1.3628 C   0  0  0  0  0  0  0  0  0  0  0  0
  -11.0897    9.5546    1.2241 C   0  0  0  0  0  0  0  0  0  0  0  0
  -10.4318    9.2655    0.0292 C   0  0  0  0  0  0  0  0  0  0  0  0
  -11.1554    8.7490   -1.0254 C   0  0  0  0  0  0  0  0  0  0  0  0
  -26.6723   10.5248   -2.4903 C   0  0  0  0  0  0  0  0  0  0  0  0
  -25.3224   10.4507   -1.9131 C   0  0  0  0  0  0  0  0  0  0  0  0
  -24.7863    9.2090   -1.6529 C   0  0  0  0  0  0  0  0  0  0  0  0
  -23.5153    9.1271   -1.1091 C   0  0  0  0  0  0  0  0  0  0  0  0
  -24.6106   11.5918   -1.6388 C   0  0  0  0  0  0  0  0  0  0  0  0
  -23.3442   11.4980   -1.0966 C   0  0  0  0  0  0  0  0  0  0  0  0
  -22.7811   10.2738   -0.8254 C   0  0  0  0  0  0  0  0  0  0  0  0
  -20.2647    8.8344   -1.0692 C   0  0  1  0  0  0  0  0  0  0  0  0
  -19.9582    6.5433   -1.0389 C   0  0  2  0  0  0  0  0  0  0  0  0
  -20.6274    5.2953   -0.4482 C   0  0  0  0  0  0  0  0  0  0  0  0
  -18.5489    6.6275   -0.5635 C   0  0  1  0  0  0  0  0  0  0  0  0
  -17.9154    7.9128   -0.9977 C   0  0  1  0  0  0  0  0  0  0  0  0
  -15.4817    8.3652   -0.6478 C   0  0  0  0  0  0  0  0  0  0  0  0
  -14.6075    8.5655    0.4190 C   0  0  0  0  0  0  0  0  0  0  0  0
  -12.4852    8.5423   -0.8551 C   0  0  0  0  0  0  0  0  0  0  0  0
  -18.8052    9.1067   -0.9593 C   0  0  1  0  0  0  0  0  0  0  0  0
  -10.3285   10.0571    2.2189 F   0  0  0  0  0  0  0  0  0  0  0  0
   -9.1138    9.4650   -0.1518 F   0  0  0  0  0  0  0  0  0  0  0  0
  -16.7252    8.1606   -0.1764 N   0  0  0  0  0  0  0  0  0  0  0  0
  -15.3842    8.4698    1.5096 N   0  0  0  0  0  0  0  0  0  0  0  0
  -16.6498    8.2274    1.1429 N   0  0  0  0  0  0  0  0  0  0  0  0
  -20.6638    7.6270   -0.5435 O   0  0  0  0  0  0  0  0  0  0  0  0
  -21.6561    4.8630   -1.2686 O   0  0  0  0  0  0  0  0  0  0  0  0
  -18.5420    6.6072    0.8422 O   0  0  0  0  0  0  0  0  0  0  0  0
  -18.4553    9.9326   -2.0531 O   0  0  0  0  0  0  0  0  0  0  0  0
  -21.1400   10.1313   -0.1228 S   0  0  0  0  0  0  0  0  0  0  0  0
  1  2  2  0
 19  1  1  0
  1 20  1  0
  2  3  1  0
  3  4  2  0
  3 22  1  0
  5  4  1  0
  4 23  1  0
 20  5  2  0
  6  7  1  6
  8  7  2  0
 10  7  1  0
  9  8  1  0
 12  9  2  0
 11 10  2  0
 12 11  1  0
 31 12  1  0
 21 13  1  0
 13 27  1  0
 13 31  1  1
 14 15  1  0
 16 14  1  0
 14 27  1  1
 15 28  1  6
 17 16  1  0
 16 29  1  1
 17 21  1  0
 17 24  1  1
 18 19  2  0
 18 24  1  0
 19 25  1  0
 21 30  1  6
 24 26  1  0
 25 26  2  0
M  END
$$$$
