
     RDKit          3D

 31 34  0  0  0  0  0  0  0  0999 V2000
  -13.2043    9.0561    0.3860 C   0  0  0  0  0  0  0  0  0  0  0  0
  -12.2164    8.7761    1.3040 C   0  0  0  0  0  0  0  0  0  0  0  0
  -11.0371    9.4892    1.3597 C   0  0  0  0  0  0  0  0  0  0  0  0
  -10.8590   10.5236    0.4478 C   0  0  0  0  0  0  0  0  0  0  0  0
  -11.8209   10.8371   -0.4868 C   0  0  0  0  0  0  0  0  0  0  0  0
  -26.2082   10.3439   -3.3232 C   0  0  0  0  0  0  0  0  0  0  0  0
  -24.9935   10.2512   -2.4656 C   0  0  0  0  0  0  0  0  0  0  0  0
  -24.7902    9.2000   -1.5968 C   0  0  0  0  0  0  0  0  0  0  0  0
  -23.6702    9.1078   -0.8015 C   0  0  0  0  0  0  0  0  0  0  0  0
  -24.0071   11.2150   -2.4970 C   0  0  0  0  0  0  0  0  0  0  0  0
  -22.8797   11.1371   -1.7069 C   0  0  0  0  0  0  0  0  0  0  0  0
  -22.6945   10.0784   -0.8446 C   0  0  0  0  0  0  0  0  0  0  0  0
  -19.9407    9.1353   -0.7971 C   0  0  1  0  0  0  0  0  0  0  0  0
  -20.0559    6.7987   -1.0272 C   0  0  2  0  0  0  0  0  0  0  0  0
  -21.1859    6.1126   -0.2584 C   0  0  0  0  0  0  0  0  0  0  0  0
  -18.7343    6.6111   -0.3508 C   0  0  1  0  0  0  0  0  0  0  0  0
  -17.8916    7.8413   -0.6108 C   0  0  1  0  0  0  0  0  0  0  0  0
  -15.6271    8.7033   -0.2624 C   0  0  0  0  0  0  0  0  0  0  0  0
  -14.4541    8.2933    0.3335 C   0  0  0  0  0  0  0  0  0  0  0  0
  -12.9771   10.0858   -0.4895 C   0  0  0  0  0  0  0  0  0  0  0  0
  -18.6650    8.9870    0.0004 C   0  0  1  0  0  0  0  0  0  0  0  0
  -10.0546    9.2301    2.2535 F   0  0  0  0  0  0  0  0  0  0  0  0
   -9.7233   11.2312    0.4806 F   0  0  0  0  0  0  0  0  0  0  0  0
  -16.5557    7.7432   -0.1108 N   0  0  0  0  0  0  0  0  0  0  0  0
  -14.7066    7.0809    0.8363 N   0  0  0  0  0  0  0  0  0  0  0  0
  -15.9619    6.7676    0.5635 N   0  0  0  0  0  0  0  0  0  0  0  0
  -20.3596    8.0406   -1.4689 O   0  0  0  0  0  0  0  0  0  0  0  0
  -22.2209    5.9463   -1.1921 O   0  0  0  0  0  0  0  0  0  0  0  0
  -18.9882    6.4744    1.0231 O   0  0  0  0  0  0  0  0  0  0  0  0
  -17.9173   10.1647    0.0031 O   0  0  0  0  0  0  0  0  0  0  0  0
  -21.2280    9.9732    0.1787 S   0  0  0  0  0  0  0  0  0  0  0  0
  1  2  2  0
 19  1  1  0
  1 20  1  0
  2  3  1  0
  3  4  2  0
  3 22  1  0
  5  4  1  0
  4 23  1  0
 20  5  2  0
  7  6  1  0
  8  7  2  0
 10  7  1  0
  9  8  1  0
 12  9  2  0
 11 10  2  0
 12 11  1  0
 31 12  1  0
 21 13  1  0
 13 27  1  0
 13 31  1  1
 14 15  1  1
 16 14  1  0
 14 27  1  0
 15 28  1  0
 17 16  1  0
 16 29  1  1
 17 21  1  0
 17 24  1  1
 18 19  2  0
 18 24  1  0
 19 25  1  0
 21 30  1  6
 24 26  1  0
 25 26  2  0
M  END
$$$$
