
     RDKit          3D

 31 34  0  0  0  0  0  0  0  0999 V2000
  -13.4834    9.4281    0.0496 C   0  0  0  0  0  0  0  0  0  0  0  0
  -12.8312    8.2379    0.1555 C   0  0  0  0  0  0  0  0  0  0  0  0
  -11.4568    8.2163    0.3919 C   0  0  0  0  0  0  0  0  0  0  0  0
  -10.7321    9.4003    0.5227 C   0  0  0  0  0  0  0  0  0  0  0  0
  -11.3940   10.6056    0.4153 C   0  0  0  0  0  0  0  0  0  0  0  0
  -27.3228    8.0795   -2.4261 C   0  0  0  0  0  0  0  0  0  0  0  0
  -25.9664    8.5037   -2.0504 C   0  0  0  0  0  0  0  0  0  0  0  0
  -25.0552    8.7543   -3.0523 C   0  0  0  0  0  0  0  0  0  0  0  0
  -23.7744    9.1546   -2.7100 C   0  0  0  0  0  0  0  0  0  0  0  0
  -25.6139    8.6474   -0.7316 C   0  0  0  0  0  0  0  0  0  0  0  0
  -24.3339    9.0470   -0.4022 C   0  0  0  0  0  0  0  0  0  0  0  0
  -23.4014    9.3049   -1.3785 C   0  0  0  0  0  0  0  0  0  0  0  0
  -20.6190    8.4580   -1.4484 C   0  0  1  0  0  0  0  0  0  0  0  0
  -19.7910    6.4823   -0.5796 C   0  0  2  0  0  0  0  0  0  0  0  0
  -20.1330    5.4713    0.5228 C   0  0  0  0  0  0  0  0  0  0  0  0
  -18.4236    7.0275   -0.3512 C   0  0  1  0  0  0  0  0  0  0  0  0
  -18.1194    8.1277   -1.3202 C   0  0  1  0  0  0  0  0  0  0  0  0
  -15.7173    8.4881   -0.7286 C   0  0  0  0  0  0  0  0  0  0  0  0
  -14.9213    9.5014   -0.1974 C   0  0  0  0  0  0  0  0  0  0  0  0
  -12.7307   10.5890    0.1852 C   0  0  0  0  0  0  0  0  0  0  0  0
  -19.2588    9.0345   -1.6330 C   0  0  1  0  0  0  0  0  0  0  0  0
  -10.7541    7.0697    0.5062 F   0  0  0  0  0  0  0  0  0  0  0  0
   -9.4065    9.4300    0.7499 F   0  0  0  0  0  0  0  0  0  0  0  0
  -16.9907    8.9147   -0.8110 N   0  0  0  0  0  0  0  0  0  0  0  0
  -15.7733   10.5156    0.0205 N   0  0  0  0  0  0  0  0  0  0  0  0
  -17.0092   10.1548   -0.3499 N   0  0  0  0  0  0  0  0  0  0  0  0
  -20.7101    7.5106   -0.4547 O   0  0  0  0  0  0  0  0  0  0  0  0
  -21.3610    4.8807    0.2743 O   0  0  0  0  0  0  0  0  0  0  0  0
  -18.3633    7.5754    0.9421 O   0  0  0  0  0  0  0  0  0  0  0  0
  -19.1473    9.4029   -2.9942 O   0  0  0  0  0  0  0  0  0  0  0  0
  -21.7366    9.8246   -0.9716 S   0  0  0  0  0  0  0  0  0  0  0  0
  1  2  2  0
 19  1  1  0
  1 20  1  0
  2  3  1  0
  3  4  2  0
  3 22  1  0
  5  4  1  0
  4 23  1  0
 20  5  2  0
  6  7  1  6
  8  7  2  0
 10  7  1  0
  9  8  1  0
 12  9  2  0
 11 10  2  0
 12 11  1  0
 31 12  1  0
 21 13  1  0
 13 27  1  0
 13 31  1  1
 14 15  1  0
 16 14  1  0
 14 27  1  1
 15 28  1  6
 17 16  1  0
 16 29  1  1
 17 21  1  0
 17 24  1  1
 18 19  2  0
 18 24  1  0
 19 25  1  0
 21 30  1  6
 24 26  1  0
 25 26  2  0
M  END
$$$$
