
     RDKit          3D

 31 34  0  0  0  0  0  0  0  0999 V2000
  -13.6223    8.8530    0.0569 C   0  0  0  0  0  0  0  0  0  0  0  0
  -12.3540    8.9416   -0.4296 C   0  0  0  0  0  0  0  0  0  0  0  0
  -11.4161    9.7474    0.2156 C   0  0  0  0  0  0  0  0  0  0  0  0
  -11.7556   10.4700    1.3587 C   0  0  0  0  0  0  0  0  0  0  0  0
  -13.0410   10.3794    1.8507 C   0  0  0  0  0  0  0  0  0  0  0  0
  -25.1670   13.0351   -1.8183 C   0  0  0  0  0  0  0  0  0  0  0  0
  -23.9939   12.2918   -1.3365 C   0  0  0  0  0  0  0  0  0  0  0  0
  -24.0830   10.9216   -1.2286 C   0  0  0  0  0  0  0  0  0  0  0  0
  -22.9840   10.2111   -0.7758 C   0  0  0  0  0  0  0  0  0  0  0  0
  -22.8349   12.9464   -1.0011 C   0  0  0  0  0  0  0  0  0  0  0  0
  -21.7455   12.2275   -0.5507 C   0  0  0  0  0  0  0  0  0  0  0  0
  -21.8024   10.8593   -0.4319 C   0  0  0  0  0  0  0  0  0  0  0  0
  -20.0859    8.6054   -1.0933 C   0  0  1  0  0  0  0  0  0  0  0  0
  -20.1624    6.3026   -1.2805 C   0  0  2  0  0  0  0  0  0  0  0  0
  -20.8085    5.1060   -0.5699 C   0  0  0  0  0  0  0  0  0  0  0  0
  -18.6812    6.1435   -1.2816 C   0  0  1  0  0  0  0  0  0  0  0  0
  -18.0139    7.3661   -1.8308 C   0  0  1  0  0  0  0  0  0  0  0  0
  -15.9663    8.3791   -0.8154 C   0  0  0  0  0  0  0  0  0  0  0  0
  -14.6389    8.0225   -0.5841 C   0  0  0  0  0  0  0  0  0  0  0  0
  -13.9269    9.5862    1.1980 C   0  0  0  0  0  0  0  0  0  0  0  0
  -18.6408    8.6614   -1.4466 C   0  0  1  0  0  0  0  0  0  0  0  0
  -10.1444    9.8771   -0.2177 F   0  0  0  0  0  0  0  0  0  0  0  0
  -10.8867   11.2606    2.0143 F   0  0  0  0  0  0  0  0  0  0  0  0
  -16.6037    7.3637   -1.4261 N   0  0  0  0  0  0  0  0  0  0  0  0
  -14.5365    6.7787   -1.0783 N   0  0  0  0  0  0  0  0  0  0  0  0
  -15.7174    6.3932   -1.5799 N   0  0  0  0  0  0  0  0  0  0  0  0
  -20.4928    7.4181   -0.5293 O   0  0  0  0  0  0  0  0  0  0  0  0
  -22.1820    5.1207   -0.7478 O   0  0  0  0  0  0  0  0  0  0  0  0
  -18.2410    5.9816    0.0437 O   0  0  0  0  0  0  0  0  0  0  0  0
  -18.5189    9.5366   -2.5511 O   0  0  0  0  0  0  0  0  0  0  0  0
  -20.4002    9.9092    0.1498 S   0  0  0  0  0  0  0  0  0  0  0  0
  1  2  2  0
 19  1  1  0
  1 20  1  0
  2  3  1  0
  3  4  2  0
  3 22  1  0
  5  4  1  0
  4 23  1  0
 20  5  2  0
  6  7  1  6
  8  7  2  0
 10  7  1  0
  9  8  1  0
 12  9  2  0
 11 10  2  0
 12 11  1  0
 31 12  1  0
 21 13  1  0
 13 27  1  0
 13 31  1  1
 14 15  1  0
 16 14  1  0
 14 27  1  1
 15 28  1  6
 17 16  1  0
 16 29  1  1
 17 21  1  0
 17 24  1  1
 18 19  2  0
 18 24  1  0
 19 25  1  0
 21 30  1  6
 24 26  1  0
 25 26  2  0
M  END
$$$$
