
     RDKit          3D

 31 34  0  0  0  0  0  0  0  0999 V2000
  -13.4887    9.5297   -1.1834 C   0  0  0  0  0  0  0  0  0  0  0  0
  -13.2903   10.3474   -2.2535 C   0  0  0  0  0  0  0  0  0  0  0  0
  -12.0033   10.7844   -2.5660 C   0  0  0  0  0  0  0  0  0  0  0  0
  -10.9068   10.3966   -1.7969 C   0  0  0  0  0  0  0  0  0  0  0  0
  -11.1090    9.5680   -0.7129 C   0  0  0  0  0  0  0  0  0  0  0  0
  -27.3440    9.0060   -1.8104 C   0  0  0  0  0  0  0  0  0  0  0  0
  -25.9222    9.0932   -1.4476 C   0  0  0  0  0  0  0  0  0  0  0  0
  -25.4286   10.3023   -1.0100 C   0  0  0  0  0  0  0  0  0  0  0  0
  -24.0906   10.3961   -0.6655 C   0  0  0  0  0  0  0  0  0  0  0  0
  -25.1031    7.9958   -1.5421 C   0  0  0  0  0  0  0  0  0  0  0  0
  -23.7706    8.1011   -1.1958 C   0  0  0  0  0  0  0  0  0  0  0  0
  -23.2475    9.2936   -0.7555 C   0  0  0  0  0  0  0  0  0  0  0  0
  -20.5947    8.2297   -1.2983 C   0  0  1  0  0  0  0  0  0  0  0  0
  -19.8833    6.0340   -1.1694 C   0  0  2  0  0  0  0  0  0  0  0  0
  -20.2142    4.7558   -0.3877 C   0  0  0  0  0  0  0  0  0  0  0  0
  -18.4536    6.3943   -0.9566 C   0  0  1  0  0  0  0  0  0  0  0  0
  -18.1386    7.7184   -1.5807 C   0  0  1  0  0  0  0  0  0  0  0  0
  -15.8045    8.6062   -1.6973 C   0  0  0  0  0  0  0  0  0  0  0  0
  -14.8176    9.0462   -0.8169 C   0  0  0  0  0  0  0  0  0  0  0  0
  -12.3740    9.1624   -0.4384 C   0  0  0  0  0  0  0  0  0  0  0  0
  -19.2090    8.7477   -1.4661 C   0  0  1  0  0  0  0  0  0  0  0  0
  -11.7421   11.5957   -3.6126 F   0  0  0  0  0  0  0  0  0  0  0  0
   -9.6480   10.7928   -2.0581 F   0  0  0  0  0  0  0  0  0  0  0  0
  -16.8946    8.2366   -1.0006 N   0  0  0  0  0  0  0  0  0  0  0  0
  -15.3730    8.9176    0.3983 N   0  0  0  0  0  0  0  0  0  0  0  0
  -16.6160    8.4325    0.2779 N   0  0  0  0  0  0  0  0  0  0  0  0
  -20.6813    7.0296   -0.6310 O   0  0  0  0  0  0  0  0  0  0  0  0
  -21.5185    4.3607   -0.6351 O   0  0  0  0  0  0  0  0  0  0  0  0
  -18.2154    6.5111    0.4240 O   0  0  0  0  0  0  0  0  0  0  0  0
  -19.1943    9.5105   -2.6571 O   0  0  0  0  0  0  0  0  0  0  0  0
  -21.5223    9.4502   -0.3014 S   0  0  0  0  0  0  0  0  0  0  0  0
  1  2  2  0
 19  1  1  0
  1 20  1  0
  2  3  1  0
  3  4  2  0
  3 22  1  0
  5  4  1  0
  4 23  1  0
 20  5  2  0
  6  7  1  6
  8  7  2  0
 10  7  1  0
  9  8  1  0
 12  9  2  0
 11 10  2  0
 12 11  1  0
 31 12  1  0
 21 13  1  0
 13 27  1  0
 13 31  1  1
 14 15  1  0
 16 14  1  0
 14 27  1  1
 15 28  1  6
 17 16  1  0
 16 29  1  1
 17 21  1  0
 17 24  1  1
 18 19  2  0
 18 24  1  0
 19 25  1  0
 21 30  1  6
 24 26  1  0
 25 26  2  0
M  END
$$$$
