
     RDKit          3D

 31 34  0  0  0  0  0  0  0  0999 V2000
  -13.8458    8.6752    0.3320 C   0  0  0  0  0  0  0  0  0  0  0  0
  -13.8829    8.9406    1.6830 C   0  0  0  0  0  0  0  0  0  0  0  0
  -12.7513    9.2613    2.4034 C   0  0  0  0  0  0  0  0  0  0  0  0
  -11.5400    9.3132    1.7227 C   0  0  0  0  0  0  0  0  0  0  0  0
  -11.4580    9.0549    0.3723 C   0  0  0  0  0  0  0  0  0  0  0  0
  -27.1025   11.2213    0.7357 C   0  0  0  0  0  0  0  0  0  0  0  0
  -25.8624   10.3969    0.6874 C   0  0  0  0  0  0  0  0  0  0  0  0
  -25.0409   10.2468    1.7846 C   0  0  0  0  0  0  0  0  0  0  0  0
  -23.8937    9.4866    1.7472 C   0  0  0  0  0  0  0  0  0  0  0  0
  -25.4715    9.7397   -0.4607 C   0  0  0  0  0  0  0  0  0  0  0  0
  -24.3255    8.9747   -0.5143 C   0  0  0  0  0  0  0  0  0  0  0  0
  -23.5172    8.8368    0.5931 C   0  0  0  0  0  0  0  0  0  0  0  0
  -20.7320    8.8465   -0.2542 C   0  0  1  0  0  0  0  0  0  0  0  0
  -20.5626    8.8301   -2.5988 C   0  0  2  0  0  0  0  0  0  0  0  0
  -21.5261    7.8910   -3.3256 C   0  0  0  0  0  0  0  0  0  0  0  0
  -19.1760    8.2695   -2.5503 C   0  0  1  0  0  0  0  0  0  0  0  0
  -18.5243    8.7312   -1.2645 C   0  0  1  0  0  0  0  0  0  0  0  0
  -16.2895    8.9264   -0.2849 C   0  0  0  0  0  0  0  0  0  0  0  0
  -15.0527    8.3348   -0.4257 C   0  0  0  0  0  0  0  0  0  0  0  0
  -12.6259    8.7403   -0.2895 C   0  0  0  0  0  0  0  0  0  0  0  0
  -19.3857    8.1653   -0.1590 C   0  0  1  0  0  0  0  0  0  0  0  0
  -12.7664    9.5254    3.7306 F   0  0  0  0  0  0  0  0  0  0  0  0
  -10.4268    9.6222    2.3987 F   0  0  0  0  0  0  0  0  0  0  0  0
  -17.1499    8.3556   -1.1457 N   0  0  0  0  0  0  0  0  0  0  0  0
  -15.1989    7.4102   -1.3798 N   0  0  0  0  0  0  0  0  0  0  0  0
  -16.4530    7.4350   -1.7982 N   0  0  0  0  0  0  0  0  0  0  0  0
  -21.0604    9.3620   -1.4590 O   0  0  0  0  0  0  0  0  0  0  0  0
  -22.2481    8.7113   -4.2068 O   0  0  0  0  0  0  0  0  0  0  0  0
  -19.2944    6.8707   -2.5629 O   0  0  0  0  0  0  0  0  0  0  0  0
  -18.7991    8.3525    1.0927 O   0  0  0  0  0  0  0  0  0  0  0  0
  -22.0309    7.8391    0.5266 S   0  0  0  0  0  0  0  0  0  0  0  0
  1  2  2  0
 19  1  1  0
  1 20  1  0
  2  3  1  0
  3  4  2  0
  3 22  1  0
  5  4  1  0
  4 23  1  0
 20  5  2  0
  7  6  1  0
  8  7  2  0
 10  7  1  0
  9  8  1  0
 12  9  2  0
 11 10  2  0
 12 11  1  0
 31 12  1  0
 21 13  1  0
 13 27  1  0
 13 31  1  6
 14 15  1  1
 16 14  1  0
 14 27  1  0
 15 28  1  0
 17 16  1  0
 16 29  1  1
 17 21  1  0
 17 24  1  1
 18 19  2  0
 18 24  1  0
 19 25  1  0
 21 30  1  1
 24 26  1  0
 25 26  2  0
M  END
$$$$
