
     RDKit          3D

 31 34  0  0  0  0  0  0  0  0999 V2000
  -13.6985    8.7617    0.5607 C   0  0  0  0  0  0  0  0  0  0  0  0
  -12.4073    8.5623    0.1248 C   0  0  0  0  0  0  0  0  0  0  0  0
  -11.3460    8.4325    0.9962 C   0  0  0  0  0  0  0  0  0  0  0  0
  -11.6106    8.5085    2.3591 C   0  0  0  0  0  0  0  0  0  0  0  0
  -12.8867    8.7069    2.8378 C   0  0  0  0  0  0  0  0  0  0  0  0
  -26.9821    8.1179   -4.0559 C   0  0  0  0  0  0  0  0  0  0  0  0
  -25.7077    8.6470   -3.4942 C   0  0  0  0  0  0  0  0  0  0  0  0
  -24.5479    8.7023   -4.2379 C   0  0  0  0  0  0  0  0  0  0  0  0
  -23.3669    9.1900   -3.7254 C   0  0  0  0  0  0  0  0  0  0  0  0
  -25.6225    9.1101   -2.1976 C   0  0  0  0  0  0  0  0  0  0  0  0
  -24.4473    9.6016   -1.6697 C   0  0  0  0  0  0  0  0  0  0  0  0
  -23.2984    9.6486   -2.4289 C   0  0  0  0  0  0  0  0  0  0  0  0
  -20.4794    9.0422   -2.0281 C   0  0  1  0  0  0  0  0  0  0  0  0
  -20.2223    7.3229   -0.4456 C   0  0  2  0  0  0  0  0  0  0  0  0
  -21.1262    7.4148    0.7845 C   0  0  0  0  0  0  0  0  0  0  0  0
  -18.8206    7.7437   -0.1337 C   0  0  1  0  0  0  0  0  0  0  0  0
  -18.2329    8.3851   -1.3725 C   0  0  1  0  0  0  0  0  0  0  0  0
  -16.0968    8.4178   -0.1774 C   0  0  0  0  0  0  0  0  0  0  0  0
  -14.8202    8.8989   -0.3719 C   0  0  0  0  0  0  0  0  0  0  0  0
  -13.9032    8.8288    1.9142 C   0  0  0  0  0  0  0  0  0  0  0  0
  -19.1156    9.5786   -1.6566 C   0  0  1  0  0  0  0  0  0  0  0  0
  -10.0707    8.2362    0.5885 F   0  0  0  0  0  0  0  0  0  0  0  0
  -10.5982    8.3856    3.2260 F   0  0  0  0  0  0  0  0  0  0  0  0
  -16.8522    8.7330   -1.2438 N   0  0  0  0  0  0  0  0  0  0  0  0
  -14.8366    9.5001   -1.5656 N   0  0  0  0  0  0  0  0  0  0  0  0
  -16.0533    9.3927   -2.0717 N   0  0  0  0  0  0  0  0  0  0  0  0
  -20.7796    7.8033   -1.5807 O   0  0  0  0  0  0  0  0  0  0  0  0
  -22.1402    6.4679    0.5701 O   0  0  0  0  0  0  0  0  0  0  0  0
  -18.8917    8.6772    0.9125 O   0  0  0  0  0  0  0  0  0  0  0  0
  -18.5826   10.3795   -2.6668 O   0  0  0  0  0  0  0  0  0  0  0  0
  -21.7721   10.2915   -1.7462 S   0  0  0  0  0  0  0  0  0  0  0  0
  1  2  2  0
 19  1  1  0
  1 20  1  0
  2  3  1  0
  3  4  2  0
  3 22  1  0
  5  4  1  0
  4 23  1  0
 20  5  2  0
  7  6  1  0
  8  7  2  0
 10  7  1  0
  9  8  1  0
 12  9  2  0
 11 10  2  0
 12 11  1  0
 31 12  1  0
 21 13  1  0
 13 27  1  0
 13 31  1  1
 14 15  1  1
 16 14  1  0
 14 27  1  0
 15 28  1  0
 17 16  1  0
 16 29  1  1
 17 21  1  0
 17 24  1  1
 18 19  2  0
 18 24  1  0
 19 25  1  0
 21 30  1  6
 24 26  1  0
 25 26  2  0
M  END
$$$$
