
     RDKit          3D

 31 34  0  0  0  0  0  0  0  0999 V2000
  -13.9946    9.0132    0.6802 C   0  0  0  0  0  0  0  0  0  0  0  0
  -13.0541    8.3100    1.3999 C   0  0  0  0  0  0  0  0  0  0  0  0
  -11.8669    8.8768    1.8145 C   0  0  0  0  0  0  0  0  0  0  0  0
  -11.6307   10.2065    1.4838 C   0  0  0  0  0  0  0  0  0  0  0  0
  -12.5442   10.9461    0.7657 C   0  0  0  0  0  0  0  0  0  0  0  0
  -26.8048   12.1137    1.2373 C   0  0  0  0  0  0  0  0  0  0  0  0
  -25.7472   11.0963    0.9800 C   0  0  0  0  0  0  0  0  0  0  0  0
  -25.0392   11.0605   -0.2026 C   0  0  0  0  0  0  0  0  0  0  0  0
  -24.0607   10.1234   -0.4471 C   0  0  0  0  0  0  0  0  0  0  0  0
  -25.4213   10.1354    1.9144 C   0  0  0  0  0  0  0  0  0  0  0  0
  -24.4440    9.1901    1.6848 C   0  0  0  0  0  0  0  0  0  0  0  0
  -23.7472    9.1706    0.4962 C   0  0  0  0  0  0  0  0  0  0  0  0
  -21.0080    8.8251   -0.4272 C   0  0  1  0  0  0  0  0  0  0  0  0
  -20.3631    8.4745   -2.6604 C   0  0  2  0  0  0  0  0  0  0  0  0
  -21.1898    7.4472   -3.4348 C   0  0  0  0  0  0  0  0  0  0  0  0
  -19.0363    7.9185   -2.2484 C   0  0  1  0  0  0  0  0  0  0  0  0
  -18.6456    8.5545   -0.9315 C   0  0  1  0  0  0  0  0  0  0  0  0
  -16.3872    9.0815   -0.1480 C   0  0  0  0  0  0  0  0  0  0  0  0
  -15.2531    8.4033    0.2433 C   0  0  0  0  0  0  0  0  0  0  0  0
  -13.7111   10.3204    0.3814 C   0  0  0  0  0  0  0  0  0  0  0  0
  -19.7344    8.1566    0.0383 C   0  0  1  0  0  0  0  0  0  0  0  0
  -10.9303    8.2034    2.5220 F   0  0  0  0  0  0  0  0  0  0  0  0
  -10.4862   10.7803    1.8742 F   0  0  0  0  0  0  0  0  0  0  0  0
  -17.3387    8.1916   -0.4794 N   0  0  0  0  0  0  0  0  0  0  0  0
  -15.5517    7.1048    0.1372 N   0  0  0  0  0  0  0  0  0  0  0  0
  -16.7968    6.9954   -0.2942 N   0  0  0  0  0  0  0  0  0  0  0  0
  -21.0645    9.1660   -1.7332 O   0  0  0  0  0  0  0  0  0  0  0  0
  -21.7948    8.1684   -4.4762 O   0  0  0  0  0  0  0  0  0  0  0  0
  -19.1987    6.5328   -2.0923 O   0  0  0  0  0  0  0  0  0  0  0  0
  -19.4102    8.5164    1.3465 O   0  0  0  0  0  0  0  0  0  0  0  0
  -22.4737    7.9465    0.1983 S   0  0  0  0  0  0  0  0  0  0  0  0
  1  2  2  0
 19  1  1  0
  1 20  1  0
  2  3  1  0
  3  4  2  0
  3 22  1  0
  5  4  1  0
  4 23  1  0
 20  5  2  0
  7  6  1  0
  8  7  2  0
 10  7  1  0
  9  8  1  0
 12  9  2  0
 11 10  2  0
 12 11  1  0
 31 12  1  0
 21 13  1  0
 13 27  1  0
 13 31  1  6
 14 15  1  1
 16 14  1  0
 14 27  1  0
 15 28  1  0
 17 16  1  0
 16 29  1  1
 17 21  1  0
 17 24  1  1
 18 19  2  0
 18 24  1  0
 19 25  1  0
 21 30  1  1
 24 26  1  0
 25 26  2  0
M  END
$$$$
