
     RDKit          3D

 31 34  0  0  0  0  0  0  0  0999 V2000
  -13.2338    9.0636   -0.5161 C   0  0  0  0  0  0  0  0  0  0  0  0
  -12.5810    8.2007   -1.3421 C   0  0  0  0  0  0  0  0  0  0  0  0
  -11.1872    8.1495   -1.3337 C   0  0  0  0  0  0  0  0  0  0  0  0
  -10.4436    8.9722   -0.4885 C   0  0  0  0  0  0  0  0  0  0  0  0
  -11.1062    9.8461    0.3481 C   0  0  0  0  0  0  0  0  0  0  0  0
  -27.2574    8.7764   -2.1205 C   0  0  0  0  0  0  0  0  0  0  0  0
  -25.8561    9.0705   -1.7880 C   0  0  0  0  0  0  0  0  0  0  0  0
  -25.2605    8.3629   -0.7674 C   0  0  0  0  0  0  0  0  0  0  0  0
  -23.9406    8.6316   -0.4455 C   0  0  0  0  0  0  0  0  0  0  0  0
  -25.1550   10.0281   -2.4777 C   0  0  0  0  0  0  0  0  0  0  0  0
  -23.8396   10.2875   -2.1479 C   0  0  0  0  0  0  0  0  0  0  0  0
  -23.2166    9.5987   -1.1346 C   0  0  0  0  0  0  0  0  0  0  0  0
  -20.5258    8.5049   -1.3007 C   0  0  1  0  0  0  0  0  0  0  0  0
  -19.7984    6.4325   -0.5798 C   0  0  2  0  0  0  0  0  0  0  0  0
  -20.1518    5.3915    0.4907 C   0  0  0  0  0  0  0  0  0  0  0  0
  -18.3839    6.8667   -0.4073 C   0  0  1  0  0  0  0  0  0  0  0  0
  -18.0542    7.9922   -1.3382 C   0  0  1  0  0  0  0  0  0  0  0  0
  -15.5813    8.2702   -1.0987 C   0  0  0  0  0  0  0  0  0  0  0  0
  -14.6916    9.1532   -0.4892 C   0  0  0  0  0  0  0  0  0  0  0  0
  -12.4620    9.8691    0.3134 C   0  0  0  0  0  0  0  0  0  0  0  0
  -19.1394    8.9926   -1.5381 C   0  0  1  0  0  0  0  0  0  0  0  0
  -10.4828    7.3166   -2.1285 F   0  0  0  0  0  0  0  0  0  0  0  0
   -9.0991    8.9595   -0.4455 F   0  0  0  0  0  0  0  0  0  0  0  0
  -16.8438    8.6694   -0.8598 N   0  0  0  0  0  0  0  0  0  0  0  0
  -15.4791   10.0650    0.1027 N   0  0  0  0  0  0  0  0  0  0  0  0
  -16.7652    9.7669   -0.1249 N   0  0  0  0  0  0  0  0  0  0  0  0
  -20.6307    7.5153   -0.3505 O   0  0  0  0  0  0  0  0  0  0  0  0
  -21.3842    4.8195    0.2218 O   0  0  0  0  0  0  0  0  0  0  0  0
  -18.2111    7.3401    0.9051 O   0  0  0  0  0  0  0  0  0  0  0  0
  -19.0775    9.4234   -2.8840 O   0  0  0  0  0  0  0  0  0  0  0  0
  -21.5112    9.9202   -0.6923 S   0  0  0  0  0  0  0  0  0  0  0  0
  1  2  2  0
 19  1  1  0
  1 20  1  0
  2  3  1  0
  3  4  2  0
  3 22  1  0
  5  4  1  0
  4 23  1  0
 20  5  2  0
  6  7  1  6
  8  7  2  0
 10  7  1  0
  9  8  1  0
 12  9  2  0
 11 10  2  0
 12 11  1  0
 31 12  1  0
 21 13  1  0
 13 27  1  0
 13 31  1  1
 14 15  1  0
 16 14  1  0
 14 27  1  1
 15 28  1  6
 17 16  1  0
 16 29  1  1
 17 21  1  0
 17 24  1  1
 18 19  2  0
 18 24  1  0
 19 25  1  0
 21 30  1  6
 24 26  1  0
 25 26  2  0
M  END
$$$$
