
     RDKit          3D

 31 34  0  0  0  0  0  0  0  0999 V2000
  -13.2142    8.9875    0.2530 C   0  0  0  0  0  0  0  0  0  0  0  0
  -12.8867    8.3374    1.4033 C   0  0  0  0  0  0  0  0  0  0  0  0
  -11.5480    8.2084    1.7726 C   0  0  0  0  0  0  0  0  0  0  0  0
  -10.5302    8.7369    0.9795 C   0  0  0  0  0  0  0  0  0  0  0  0
  -10.8633    9.3955   -0.1858 C   0  0  0  0  0  0  0  0  0  0  0  0
  -27.0863    8.4114   -2.1903 C   0  0  0  0  0  0  0  0  0  0  0  0
  -25.6681    8.7617   -2.0270 C   0  0  0  0  0  0  0  0  0  0  0  0
  -25.3523    9.9616   -1.4289 C   0  0  0  0  0  0  0  0  0  0  0  0
  -24.0194   10.3021   -1.2699 C   0  0  0  0  0  0  0  0  0  0  0  0
  -24.6792    7.9140   -2.4601 C   0  0  0  0  0  0  0  0  0  0  0  0
  -23.3536    8.2640   -2.2963 C   0  0  0  0  0  0  0  0  0  0  0  0
  -23.0056    9.4541   -1.7032 C   0  0  0  0  0  0  0  0  0  0  0  0
  -20.2957    8.3990   -1.6221 C   0  0  1  0  0  0  0  0  0  0  0  0
  -19.7057    6.5633   -0.3469 C   0  0  2  0  0  0  0  0  0  0  0  0
  -20.1936    5.8192    0.9032 C   0  0  0  0  0  0  0  0  0  0  0  0
  -18.3022    7.0188   -0.1417 C   0  0  1  0  0  0  0  0  0  0  0  0
  -17.8490    7.8792   -1.2803 C   0  0  1  0  0  0  0  0  0  0  0  0
  -15.4804    8.1217   -0.5180 C   0  0  0  0  0  0  0  0  0  0  0  0
  -14.6016    9.1479   -0.1753 C   0  0  0  0  0  0  0  0  0  0  0  0
  -12.1752    9.5022   -0.5139 C   0  0  0  0  0  0  0  0  0  0  0  0
  -18.8784    8.8058   -1.8280 C   0  0  1  0  0  0  0  0  0  0  0  0
  -11.1597    7.5752    2.8995 F   0  0  0  0  0  0  0  0  0  0  0  0
   -9.2259    8.6368    1.2933 F   0  0  0  0  0  0  0  0  0  0  0  0
  -16.6711    8.6466   -0.8602 N   0  0  0  0  0  0  0  0  0  0  0  0
  -15.3218   10.2699   -0.3307 N   0  0  0  0  0  0  0  0  0  0  0  0
  -16.5588    9.9595   -0.7409 N   0  0  0  0  0  0  0  0  0  0  0  0
  -20.5231    7.6738   -0.4750 O   0  0  0  0  0  0  0  0  0  0  0  0
  -19.9959    4.4555    0.7631 O   0  0  0  0  0  0  0  0  0  0  0  0
  -18.2443    7.7992    1.0262 O   0  0  0  0  0  0  0  0  0  0  0  0
  -18.6721    8.8923   -3.2247 O   0  0  0  0  0  0  0  0  0  0  0  0
  -21.2922    9.9257   -1.4813 S   0  0  0  0  0  0  0  0  0  0  0  0
  1  2  2  0
 19  1  1  0
  1 20  1  0
  2  3  1  0
  3  4  2  0
  3 22  1  0
  5  4  1  0
  4 23  1  0
 20  5  2  0
  6  7  1  6
  8  7  2  0
 10  7  1  0
  9  8  1  0
 12  9  2  0
 11 10  2  0
 12 11  1  0
 31 12  1  0
 21 13  1  0
 13 27  1  0
 13 31  1  1
 14 15  1  0
 16 14  1  0
 14 27  1  1
 15 28  1  6
 17 16  1  0
 16 29  1  1
 17 21  1  0
 17 24  1  1
 18 19  2  0
 18 24  1  0
 19 25  1  0
 21 30  1  6
 24 26  1  0
 25 26  2  0
M  END
$$$$
