
     RDKit          3D

 81 83  0  0  0  0  0  0  0  0999 V2000
   59.0156  -34.9513   -3.4102 N   0  0  0  0  0  4  0  0  0  0  0  0
   57.5960  -35.4958   -3.4674 C   0  0  2  0  0  0  0  0  0  0  0  0
   56.7625  -34.5262   -4.3225 C   0  0  0  0  0  0  0  0  0  0  0  0
   56.9821  -33.3059   -4.2540 O   0  0  0  0  0  0  0  0  0  0  0  0
   56.9923  -35.6366   -2.0541 C   0  0  0  0  0  0  0  0  0  0  0  0
   57.5656  -36.7858   -1.2516 C   0  0  0  0  0  0  0  0  0  0  0  0
   56.9520  -38.0443   -1.3876 C   0  0  0  0  0  0  0  0  0  0  0  0
   57.4778  -39.1652   -0.7555 C   0  0  0  0  0  0  0  0  0  0  0  0
   58.7453  -36.6500   -0.4538 C   0  0  0  0  0  0  0  0  0  0  0  0
   59.2712  -37.8081    0.1783 C   0  0  0  0  0  0  0  0  0  0  0  0
   58.6319  -39.0446    0.0214 C   0  0  0  0  0  0  0  0  0  0  0  0
   59.4479  -35.4350   -0.2668 C   0  0  0  0  0  0  0  0  0  0  0  0
   60.6080  -35.3705    0.5131 C   0  0  0  0  0  0  0  0  0  0  0  0
   61.0957  -36.5119    1.1268 C   0  0  0  0  0  0  0  0  0  0  0  0
   60.4333  -37.7230    0.9607 C   0  0  0  0  0  0  0  0  0  0  0  0
   55.7715  -35.0366   -5.1219 N   0  0  0  0  0  0  0  0  0  0  0  0
   54.9739  -34.1056   -5.9415 C   0  0  2  0  0  0  0  0  0  0  0  0
   53.6283  -34.7160   -6.4107 C   0  0  0  0  0  0  0  0  0  0  0  0
   53.5594  -35.6763   -7.1651 O   0  0  0  0  0  0  0  0  0  0  0  0
   55.7881  -33.5681   -7.1316 C   0  0  0  0  0  0  0  0  0  0  0  0
   55.4365  -32.1772   -7.6691 C   0  0  0  0  0  0  0  0  0  0  0  0
   56.1909  -31.6895   -8.9061 C   0  0  0  0  0  0  0  0  0  0  0  0
   57.5771  -32.0674   -8.8556 N   0  0  0  0  0  0  0  0  0  0  0  0
   58.5845  -31.4030   -8.2604 C   0  0  0  0  0  0  0  0  0  0  0  0
   58.5484  -30.8157   -7.1046 N   0  0  0  0  0  0  0  0  0  0  0  0
   59.6814  -31.4071   -9.0482 N   0  0  0  0  0  0  0  0  0  0  0  0
   52.5114  -34.1860   -5.8032 N   0  0  0  0  0  0  0  0  0  0  0  0
   51.1557  -34.6377   -6.0892 C   0  0  2  0  0  0  0  0  0  0  0  0
   50.7100  -33.9196   -7.3887 C   0  0  0  0  0  0  0  0  0  0  0  0
   50.0258  -32.8982   -7.3608 O   0  0  0  0  0  0  0  0  0  0  0  0
   50.2208  -34.2787   -4.9219 C   0  0  0  0  0  0  0  0  0  0  0  0
   50.8297  -34.6459   -3.5604 C   0  0  0  0  0  0  0  0  0  0  0  0
   49.9601  -34.1586   -2.3990 C   0  0  0  0  0  0  0  0  0  0  0  0
   50.7576  -33.3483   -1.4886 N   0  0  0  0  0  0  0  0  0  0  0  0
   50.2365  -32.8644   -0.3369 C   0  0  0  0  0  0  0  0  0  0  0  0
   50.8462  -32.5421    0.7406 N   0  0  0  0  0  0  0  0  0  0  0  0
   48.8991  -32.7329   -0.3974 N   0  0  0  0  0  0  0  0  0  0  0  0
   51.1544  -34.4720   -8.5712 N   0  0  0  0  0  0  0  0  0  0  0  0
   50.5357  -34.1070   -9.8389 C   0  0  2  0  0  0  0  0  0  0  0  0
   50.0382  -35.4235  -10.4700 C   0  0  0  0  0  0  0  0  0  0  0  0
   50.7286  -36.0353  -11.2879 O   0  0  0  0  0  0  0  0  0  0  0  0
   51.5346  -33.4827  -10.8276 C   0  0  0  0  0  0  0  0  0  0  0  0
   52.0404  -32.0937  -10.4498 C   0  0  0  0  0  0  0  0  0  0  0  0
   53.4694  -32.0538   -9.8965 C   0  0  0  0  0  0  0  0  0  0  0  0
   54.2566  -30.9745  -10.5072 N   0  0  0  0  0  0  0  0  0  0  0  0
   54.7092  -31.0958  -11.7718 C   0  0  0  0  0  0  0  0  0  0  0  0
   54.3414  -30.0809  -12.5738 N   0  0  0  0  0  0  0  0  0  0  0  0
   55.5005  -32.0457  -12.1547 N   0  0  0  0  0  0  0  0  0  0  0  0
   46.9916  -37.1446   -9.0513 C   0  0  0  0  0  0  0  0  0  0  0  0
   48.7551  -35.8022  -10.1579 N   0  0  0  0  0  0  0  0  0  0  0  0
   46.4386  -36.7760   -8.0208 O   0  0  0  0  0  0  0  0  0  0  0  0
   48.5060  -36.9628   -9.2988 C   0  0  1  0  0  0  0  0  0  0  0  0
   49.2920  -36.9341   -7.9744 C   0  0  0  0  0  0  0  0  0  0  0  0
   51.2536  -37.7805   -6.5703 C   0  0  0  0  0  0  0  0  0  0  0  0
   51.0981  -38.9727   -5.6173 C   0  0  0  0  0  0  0  0  0  0  0  0
   50.4407  -37.9492   -7.8705 C   0  0  0  0  0  0  0  0  0  0  0  0
   52.4066  -39.6484   -5.4625 N   0  0  0  0  0  4  0  0  0  0  0  0
   46.3190  -37.7668  -10.0887 N   0  0  0  0  0  0  0  0  0  0  0  0
   45.2079  -37.0693  -10.7442 C   0  0  2  0  0  0  0  0  0  0  0  0
   43.9145  -37.5704  -10.0642 C   0  0  0  0  0  0  0  0  0  0  0  0
   42.8040  -37.1761  -10.4178 O   0  0  0  0  0  0  0  0  0  0  0  0
   45.1588  -37.3338  -12.2550 C   0  0  0  0  0  0  0  0  0  0  0  0
   45.3203  -36.0609  -13.0944 C   0  0  0  0  0  0  0  0  0  0  0  0
   46.7572  -35.7183  -13.5169 C   0  0  0  0  0  0  0  0  0  0  0  0
   46.8080  -34.9525  -14.8293 C   0  0  0  0  0  0  0  0  0  0  0  0
   45.6772  -35.3669  -15.6861 N   0  0  0  0  0  4  0  0  0  0  0  0
   44.1278  -38.4400   -9.0134 N   0  0  0  0  0  0  0  0  0  0  0  0
   43.0255  -39.1122   -8.3554 C   0  0  0  0  0  0  0  0  0  0  0  0
   43.3919  -39.4382   -6.9305 C   0  0  0  0  0  0  0  0  0  0  0  0
   43.7052  -38.4174   -6.0266 C   0  0  0  0  0  0  0  0  0  0  0  0
   44.0631  -38.7259   -4.7134 C   0  0  0  0  0  0  0  0  0  0  0  0
   44.1097  -40.0629   -4.2883 C   0  0  0  0  0  0  0  0  0  0  0  0
   44.4475  -40.3599   -2.8623 C   0  0  0  0  0  0  0  0  0  0  0  0
   44.6257  -39.3502   -1.9671 N   0  0  0  0  0  0  0  0  0  0  0  0
   44.5858  -41.5907   -2.4924 N   0  0  0  0  0  0  0  0  0  0  0  0
   43.8212  -41.0901   -5.1939 C   0  0  0  0  0  0  0  0  0  0  0  0
   43.4726  -40.7783   -6.5129 C   0  0  0  0  0  0  0  0  0  0  0  0
   57.5696  -30.8688   -6.7899 H   0  0  0  0  0  0  0  0  0  0  0  0
   51.8300  -32.3760    0.5495 H   0  0  0  0  0  0  0  0  0  0  0  0
   55.6905  -32.6266  -11.3162 H   0  0  0  0  0  0  0  0  0  0  0  0
   44.6679  -42.1872   -3.3177 H   0  0  0  0  0  0  0  0  0  0  0  0
  2  1  1  1
  3  2  1  0
  2  5  1  0
  3  4  2  0
 16  3  1  0
  5  6  1  0
  6  7  2  0
  6  9  1  0
  7  8  1  0
  8 11  2  0
  9 10  2  0
  9 12  1  0
 10 11  1  0
 10 15  1  0
 12 13  2  0
 13 14  1  0
 15 14  2  0
 17 16  1  0
 18 17  1  0
 17 20  1  6
 18 19  2  0
 27 18  1  0
 20 21  1  0
 21 22  1  0
 22 23  1  0
 23 24  1  0
 24 25  2  0
 24 26  1  0
 28 27  1  0
 29 28  1  0
 28 31  1  1
 29 30  2  0
 38 29  1  0
 31 32  1  0
 32 33  1  0
 33 34  1  0
 34 35  1  0
 35 36  2  0
 35 37  1  0
 39 38  1  0
 40 39  1  0
 39 42  1  6
 40 41  2  0
 50 40  1  0
 42 43  1  0
 43 44  1  0
 44 45  1  0
 45 46  1  0
 46 47  1  0
 46 48  2  0
 49 51  2  0
 52 49  1  0
 49 58  1  0
 52 50  1  0
 52 53  1  1
 56 53  1  0
 54 55  1  0
 54 56  1  0
 55 57  1  0
 58 59  1  0
 59 60  1  0
 59 62  1  6
 60 61  2  0
 60 67  1  0
 62 63  1  0
 63 64  1  0
 64 65  1  0
 65 66  1  0
 67 68  1  0
 68 69  1  0
 69 70  2  0
 69 77  1  0
 70 71  1  0
 71 72  2  0
 72 73  1  0
 72 76  1  0
 73 74  1  0
 73 75  2  0
 76 77  2  0
 25 78  1  0
 36 79  1  0
 48 80  1  0
 75 81  1  0
M  CHG  3   1   1  57   1  66   1
M  END
$$$$
