
     RDKit          3D

 81 83  0  0  0  0  0  0  0  0999 V2000
   58.4716  -34.3664    0.3403 N   0  0  0  0  0  4  0  0  0  0  0  0
   57.9735  -33.8531   -1.0026 C   0  0  2  0  0  0  0  0  0  0  0  0
   56.5752  -34.4499   -1.2365 C   0  0  0  0  0  0  0  0  0  0  0  0
   56.1064  -35.2521   -0.4126 O   0  0  0  0  0  0  0  0  0  0  0  0
   58.9344  -34.2465   -2.1444 C   0  0  0  0  0  0  0  0  0  0  0  0
   60.3005  -33.5998   -2.0495 C   0  0  0  0  0  0  0  0  0  0  0  0
   60.5373  -32.7356   -0.9651 C   0  0  0  0  0  0  0  0  0  0  0  0
   61.7941  -32.1781   -0.7597 C   0  0  0  0  0  0  0  0  0  0  0  0
   61.3613  -33.9129   -2.9568 C   0  0  0  0  0  0  0  0  0  0  0  0
   62.6399  -33.3391   -2.7262 C   0  0  0  0  0  0  0  0  0  0  0  0
   62.8379  -32.4812   -1.6366 C   0  0  0  0  0  0  0  0  0  0  0  0
   61.2329  -34.7827   -4.0667 C   0  0  0  0  0  0  0  0  0  0  0  0
   62.3147  -35.0629   -4.9087 C   0  0  0  0  0  0  0  0  0  0  0  0
   63.5492  -34.4836   -4.6683 C   0  0  0  0  0  0  0  0  0  0  0  0
   63.7122  -33.6281   -3.5845 C   0  0  0  0  0  0  0  0  0  0  0  0
   55.8903  -34.1002   -2.3724 N   0  0  0  0  0  0  0  0  0  0  0  0
   54.5010  -34.5681   -2.5330 C   0  0  2  0  0  0  0  0  0  0  0  0
   53.9089  -34.2326   -3.9259 C   0  0  0  0  0  0  0  0  0  0  0  0
   54.2499  -33.2550   -4.5770 O   0  0  0  0  0  0  0  0  0  0  0  0
   53.5989  -34.0434   -1.4020 C   0  0  0  0  0  0  0  0  0  0  0  0
   53.8044  -34.6196    0.0027 C   0  0  0  0  0  0  0  0  0  0  0  0
   52.8698  -34.1284    1.1083 C   0  0  0  0  0  0  0  0  0  0  0  0
   53.2985  -34.5928    2.3996 N   0  0  0  0  0  0  0  0  0  0  0  0
   54.1188  -33.9663    3.2628 C   0  0  0  0  0  0  0  0  0  0  0  0
   53.8301  -32.9370    3.9970 N   0  0  0  0  0  0  0  0  0  0  0  0
   55.3359  -34.5516    3.2647 N   0  0  0  0  0  0  0  0  0  0  0  0
   53.0699  -35.1951   -4.4429 N   0  0  0  0  0  0  0  0  0  0  0  0
   52.9151  -35.4365   -5.8717 C   0  0  2  0  0  0  0  0  0  0  0  0
   51.9206  -36.6162   -6.0206 C   0  0  0  0  0  0  0  0  0  0  0  0
   52.2919  -37.7341   -6.3737 O   0  0  0  0  0  0  0  0  0  0  0  0
   54.2743  -35.7889   -6.4992 C   0  0  0  0  0  0  0  0  0  0  0  0
   55.3442  -34.7307   -6.1916 C   0  0  0  0  0  0  0  0  0  0  0  0
   56.7217  -35.1470   -6.7131 C   0  0  0  0  0  0  0  0  0  0  0  0
   57.6531  -34.0333   -6.5968 N   0  0  0  0  0  0  0  0  0  0  0  0
   57.4347  -32.8631   -7.2410 C   0  0  0  0  0  0  0  0  0  0  0  0
   57.1615  -32.6718   -8.4760 N   0  0  0  0  0  0  0  0  0  0  0  0
   57.5368  -31.8019   -6.4205 N   0  0  0  0  0  0  0  0  0  0  0  0
   50.6067  -36.3475   -5.7007 N   0  0  0  0  0  0  0  0  0  0  0  0
   49.8995  -35.2436   -6.3363 C   0  0  2  0  0  0  0  0  0  0  0  0
   49.3136  -35.8056   -7.6477 C   0  0  0  0  0  0  0  0  0  0  0  0
   50.0009  -35.8815   -8.6683 O   0  0  0  0  0  0  0  0  0  0  0  0
   50.8342  -34.0844   -6.7209 C   0  0  0  0  0  0  0  0  0  0  0  0
   50.2951  -32.6888   -6.4219 C   0  0  0  0  0  0  0  0  0  0  0  0
   49.6007  -32.5408   -5.0633 C   0  0  0  0  0  0  0  0  0  0  0  0
   50.5036  -32.8763   -3.9544 N   0  0  0  0  0  0  0  0  0  0  0  0
   50.0819  -32.7667   -2.6781 C   0  0  0  0  0  0  0  0  0  0  0  0
   49.1306  -33.6581   -2.3481 N   0  0  0  0  0  0  0  0  0  0  0  0
   50.6076  -31.9483   -1.8245 N   0  0  0  0  0  0  0  0  0  0  0  0
   46.4620  -36.9355   -9.4159 C   0  0  0  0  0  0  0  0  0  0  0  0
   47.9720  -36.1015   -7.6381 N   0  0  0  0  0  0  0  0  0  0  0  0
   45.4202  -36.3279   -9.1941 O   0  0  0  0  0  0  0  0  0  0  0  0
   47.4672  -37.3061   -8.3024 C   0  0  1  0  0  0  0  0  0  0  0  0
   46.8738  -38.3460   -7.3334 C   0  0  0  0  0  0  0  0  0  0  0  0
   47.0365  -39.3180   -4.9744 C   0  0  0  0  0  0  0  0  0  0  0  0
   47.2566  -40.8155   -4.7238 C   0  0  0  0  0  0  0  0  0  0  0  0
   47.8112  -38.8012   -6.2043 C   0  0  0  0  0  0  0  0  0  0  0  0
   47.0383  -41.1080   -3.2887 N   0  0  0  0  0  4  0  0  0  0  0  0
   46.8362  -37.3572  -10.6799 N   0  0  0  0  0  0  0  0  0  0  0  0
   45.8948  -37.2077  -11.7944 C   0  0  2  0  0  0  0  0  0  0  0  0
   44.8400  -38.3242  -11.6291 C   0  0  0  0  0  0  0  0  0  0  0  0
   45.1476  -39.4522  -11.2462 O   0  0  0  0  0  0  0  0  0  0  0  0
   46.5826  -37.3155  -13.1619 C   0  0  0  0  0  0  0  0  0  0  0  0
   48.0340  -36.8213  -13.1461 C   0  0  0  0  0  0  0  0  0  0  0  0
   48.2806  -35.4993  -12.4031 C   0  0  0  0  0  0  0  0  0  0  0  0
   49.7179  -35.0211  -12.5332 C   0  0  0  0  0  0  0  0  0  0  0  0
   50.0246  -34.7626  -13.9556 N   0  0  0  0  0  4  0  0  0  0  0  0
   43.5616  -37.9539  -11.9956 N   0  0  0  0  0  0  0  0  0  0  0  0
   42.4650  -38.9007  -11.9667 C   0  0  0  0  0  0  0  0  0  0  0  0
   42.0979  -39.2271  -10.5420 C   0  0  0  0  0  0  0  0  0  0  0  0
   42.9966  -39.9107   -9.7161 C   0  0  0  0  0  0  0  0  0  0  0  0
   42.6440  -40.2279   -8.4035 C   0  0  0  0  0  0  0  0  0  0  0  0
   41.3855  -39.8620   -7.9008 C   0  0  0  0  0  0  0  0  0  0  0  0
   41.0553  -40.1709   -6.4755 C   0  0  0  0  0  0  0  0  0  0  0  0
   39.7967  -39.9725   -5.9967 N   0  0  0  0  0  0  0  0  0  0  0  0
   41.9867  -40.6136   -5.6963 N   0  0  0  0  0  0  0  0  0  0  0  0
   40.4726  -39.1997   -8.7292 C   0  0  0  0  0  0  0  0  0  0  0  0
   40.8249  -38.8919  -10.0482 C   0  0  0  0  0  0  0  0  0  0  0  0
   52.9432  -33.1642    4.4679 H   0  0  0  0  0  0  0  0  0  0  0  0
   56.2247  -33.0059   -8.6829 H   0  0  0  0  0  0  0  0  0  0  0  0
   50.3833  -32.3211   -0.8825 H   0  0  0  0  0  0  0  0  0  0  0  0
   42.4999  -41.3600   -6.1687 H   0  0  0  0  0  0  0  0  0  0  0  0
  2  1  1  1
  3  2  1  0
  2  5  1  0
  3  4  2  0
 16  3  1  0
  5  6  1  0
  6  7  2  0
  6  9  1  0
  7  8  1  0
  8 11  2  0
  9 10  2  0
  9 12  1  0
 10 11  1  0
 10 15  1  0
 12 13  2  0
 13 14  1  0
 15 14  2  0
 17 16  1  0
 18 17  1  0
 17 20  1  1
 18 19  2  0
 27 18  1  0
 20 21  1  0
 21 22  1  0
 22 23  1  0
 23 24  1  0
 24 25  2  0
 24 26  1  0
 28 27  1  0
 29 28  1  0
 28 31  1  1
 29 30  2  0
 38 29  1  0
 31 32  1  0
 32 33  1  0
 33 34  1  0
 34 35  1  0
 35 36  2  0
 35 37  1  0
 39 38  1  0
 40 39  1  0
 39 42  1  6
 40 41  2  0
 50 40  1  0
 42 43  1  0
 43 44  1  0
 44 45  1  0
 45 46  1  0
 46 47  1  0
 46 48  2  0
 49 51  2  0
 52 49  1  0
 49 58  1  0
 52 50  1  0
 52 53  1  1
 56 53  1  0
 54 55  1  0
 54 56  1  0
 55 57  1  0
 58 59  1  0
 59 60  1  0
 59 62  1  6
 60 61  2  0
 60 67  1  0
 62 63  1  0
 63 64  1  0
 64 65  1  0
 65 66  1  0
 67 68  1  0
 68 69  1  0
 69 70  2  0
 69 77  1  0
 70 71  1  0
 71 72  2  0
 72 73  1  0
 72 76  1  0
 73 74  1  0
 73 75  2  0
 76 77  2  0
 25 78  1  0
 36 79  1  0
 48 80  1  0
 75 81  1  0
M  CHG  3   1   1  57   1  66   1
M  END
$$$$
