
     RDKit          3D

 81 83  0  0  0  0  0  0  0  0999 V2000
   53.9596  -34.6488    0.5084 N   0  0  0  0  0  4  0  0  0  0  0  0
   54.4521  -33.2093    0.5093 C   0  0  2  0  0  0  0  0  0  0  0  0
   54.3654  -32.6896   -0.9359 C   0  0  0  0  0  0  0  0  0  0  0  0
   54.4566  -31.4706   -1.1545 O   0  0  0  0  0  0  0  0  0  0  0  0
   55.8980  -33.1119    1.0400 C   0  0  0  0  0  0  0  0  0  0  0  0
   56.2307  -34.1305    2.1101 C   0  0  0  0  0  0  0  0  0  0  0  0
   55.9012  -33.8091    3.4393 C   0  0  0  0  0  0  0  0  0  0  0  0
   56.0909  -34.7303    4.4630 C   0  0  0  0  0  0  0  0  0  0  0  0
   56.7689  -35.4193    1.8003 C   0  0  0  0  0  0  0  0  0  0  0  0
   56.9489  -36.3493    2.8588 C   0  0  0  0  0  0  0  0  0  0  0  0
   56.6109  -35.9931    4.1707 C   0  0  0  0  0  0  0  0  0  0  0  0
   57.1163  -35.8478    0.4963 C   0  0  0  0  0  0  0  0  0  0  0  0
   57.6230  -37.1297    0.2555 C   0  0  0  0  0  0  0  0  0  0  0  0
   57.7981  -38.0150    1.3056 C   0  0  0  0  0  0  0  0  0  0  0  0
   57.4630  -37.6290    2.5986 C   0  0  0  0  0  0  0  0  0  0  0  0
   54.1588  -33.5903   -1.9496 N   0  0  0  0  0  0  0  0  0  0  0  0
   54.0935  -33.0923   -3.3361 C   0  0  2  0  0  0  0  0  0  0  0  0
   53.2449  -33.9995   -4.2636 C   0  0  0  0  0  0  0  0  0  0  0  0
   52.8320  -35.0995   -3.9236 O   0  0  0  0  0  0  0  0  0  0  0  0
   55.5005  -32.8624   -3.9157 C   0  0  0  0  0  0  0  0  0  0  0  0
   56.5068  -32.0828   -3.0630 C   0  0  0  0  0  0  0  0  0  0  0  0
   57.9290  -31.9422   -3.6058 C   0  0  0  0  0  0  0  0  0  0  0  0
   58.0561  -32.5504   -4.9023 N   0  0  0  0  0  0  0  0  0  0  0  0
   59.1570  -32.6082   -5.6738 C   0  0  0  0  0  0  0  0  0  0  0  0
   59.3099  -33.3109   -6.7531 N   0  0  0  0  0  0  0  0  0  0  0  0
   60.1318  -31.8258   -5.1626 N   0  0  0  0  0  0  0  0  0  0  0  0
   52.8678  -33.4163   -5.4532 N   0  0  0  0  0  0  0  0  0  0  0  0
   51.4774  -33.1954   -5.8297 C   0  0  2  0  0  0  0  0  0  0  0  0
   51.1681  -34.1738   -6.9916 C   0  0  0  0  0  0  0  0  0  0  0  0
   50.7629  -33.7751   -8.0820 O   0  0  0  0  0  0  0  0  0  0  0  0
   51.2756  -31.7381   -6.2782 C   0  0  0  0  0  0  0  0  0  0  0  0
   49.8238  -31.4576   -6.6938 C   0  0  0  0  0  0  0  0  0  0  0  0
   48.8625  -32.5181   -6.1517 C   0  0  0  0  0  0  0  0  0  0  0  0
   47.6246  -32.5037   -6.9192 N   0  0  0  0  0  0  0  0  0  0  0  0
   46.4208  -32.3899   -6.3109 C   0  0  0  0  0  0  0  0  0  0  0  0
   45.3348  -31.9009   -6.7776 N   0  0  0  0  0  0  0  0  0  0  0  0
   46.4371  -32.8677   -5.0535 N   0  0  0  0  0  0  0  0  0  0  0  0
   51.4071  -35.5085   -6.7420 N   0  0  0  0  0  0  0  0  0  0  0  0
   51.2319  -36.5025   -7.7928 C   0  0  2  0  0  0  0  0  0  0  0  0
   49.7224  -36.8154   -7.8422 C   0  0  0  0  0  0  0  0  0  0  0  0
   49.0503  -36.8624   -6.8098 O   0  0  0  0  0  0  0  0  0  0  0  0
   51.9560  -37.8239   -7.4851 C   0  0  0  0  0  0  0  0  0  0  0  0
   53.4190  -37.6827   -7.0755 C   0  0  0  0  0  0  0  0  0  0  0  0
   54.0769  -38.9720   -6.5709 C   0  0  0  0  0  0  0  0  0  0  0  0
   55.5281  -38.8121   -6.4095 N   0  0  0  0  0  0  0  0  0  0  0  0
   56.2926  -38.4507   -7.4599 C   0  0  0  0  0  0  0  0  0  0  0  0
   57.4723  -37.9110   -7.1055 N   0  0  0  0  0  0  0  0  0  0  0  0
   55.9667  -38.6869   -8.6900 N   0  0  0  0  0  0  0  0  0  0  0  0
   46.8518  -37.8630   -8.8114 C   0  0  0  0  0  0  0  0  0  0  0  0
   49.2086  -37.1466   -9.0725 N   0  0  0  0  0  0  0  0  0  0  0  0
   45.7554  -37.5607   -8.3530 O   0  0  0  0  0  0  0  0  0  0  0  0
   47.8214  -36.8225   -9.4155 C   0  0  1  0  0  0  0  0  0  0  0  0
   47.5820  -36.6425  -10.9263 C   0  0  0  0  0  0  0  0  0  0  0  0
   46.1806  -34.9466  -12.2286 C   0  0  0  0  0  0  0  0  0  0  0  0
   47.5612  -34.2811  -12.2982 C   0  0  0  0  0  0  0  0  0  0  0  0
   46.1663  -36.1915  -11.3176 C   0  0  0  0  0  0  0  0  0  0  0  0
   47.3931  -32.8106  -12.3423 N   0  0  0  0  0  4  0  0  0  0  0  0
   47.3332  -39.1606   -8.8252 N   0  0  0  0  0  0  0  0  0  0  0  0
   47.2559  -39.9417  -10.0640 C   0  0  2  0  0  0  0  0  0  0  0  0
   47.8085  -41.3454   -9.7316 C   0  0  0  0  0  0  0  0  0  0  0  0
   49.0170  -41.5622   -9.6530 O   0  0  0  0  0  0  0  0  0  0  0  0
   48.0554  -39.3060  -11.2092 C   0  0  0  0  0  0  0  0  0  0  0  0
   49.2608  -40.1490  -11.6420 C   0  0  0  0  0  0  0  0  0  0  0  0
   50.1587  -39.5246  -12.7212 C   0  0  0  0  0  0  0  0  0  0  0  0
   51.3490  -40.4056  -13.0653 C   0  0  0  0  0  0  0  0  0  0  0  0
   52.1390  -39.7693  -14.1402 N   0  0  0  0  0  4  0  0  0  0  0  0
   46.8378  -42.3166   -9.5885 N   0  0  0  0  0  0  0  0  0  0  0  0
   45.7973  -42.2006   -8.5866 C   0  0  0  0  0  0  0  0  0  0  0  0
   44.4520  -42.0529   -9.2495 C   0  0  0  0  0  0  0  0  0  0  0  0
   44.3384  -41.4207  -10.4923 C   0  0  0  0  0  0  0  0  0  0  0  0
   43.0877  -41.2690  -11.0927 C   0  0  0  0  0  0  0  0  0  0  0  0
   41.9338  -41.7512  -10.4553 C   0  0  0  0  0  0  0  0  0  0  0  0
   40.6140  -41.6191  -11.1459 C   0  0  0  0  0  0  0  0  0  0  0  0
   39.4568  -41.9110  -10.4915 N   0  0  0  0  0  0  0  0  0  0  0  0
   40.5863  -41.2400  -12.3812 N   0  0  0  0  0  0  0  0  0  0  0  0
   42.0374  -42.3628   -9.2009 C   0  0  0  0  0  0  0  0  0  0  0  0
   43.2917  -42.5044   -8.5965 C   0  0  0  0  0  0  0  0  0  0  0  0
   58.4472  -33.8632   -6.8566 H   0  0  0  0  0  0  0  0  0  0  0  0
   45.3114  -32.0022   -7.7882 H   0  0  0  0  0  0  0  0  0  0  0  0
   56.6062  -39.4317   -9.0262 H   0  0  0  0  0  0  0  0  0  0  0  0
   41.5412  -41.1003  -12.7162 H   0  0  0  0  0  0  0  0  0  0  0  0
  2  1  1  6
  3  2  1  0
  2  5  1  0
  3  4  2  0
 16  3  1  0
  5  6  1  0
  6  7  2  0
  6  9  1  0
  7  8  1  0
  8 11  2  0
  9 10  2  0
  9 12  1  0
 10 11  1  0
 10 15  1  0
 12 13  2  0
 13 14  1  0
 15 14  2  0
 17 16  1  0
 18 17  1  0
 17 20  1  6
 18 19  2  0
 27 18  1  0
 20 21  1  0
 21 22  1  0
 22 23  1  0
 23 24  1  0
 24 25  2  0
 24 26  1  0
 28 27  1  0
 29 28  1  0
 28 31  1  6
 29 30  2  0
 38 29  1  0
 31 32  1  0
 32 33  1  0
 33 34  1  0
 34 35  1  0
 35 36  2  0
 35 37  1  0
 39 38  1  0
 40 39  1  0
 39 42  1  1
 40 41  2  0
 50 40  1  0
 42 43  1  0
 43 44  1  0
 44 45  1  0
 45 46  1  0
 46 47  1  0
 46 48  2  0
 49 51  2  0
 52 49  1  0
 49 58  1  0
 52 50  1  0
 52 53  1  6
 56 53  1  0
 54 55  1  0
 54 56  1  0
 55 57  1  0
 58 59  1  0
 59 60  1  0
 59 62  1  6
 60 61  2  0
 60 67  1  0
 62 63  1  0
 63 64  1  0
 64 65  1  0
 65 66  1  0
 67 68  1  0
 68 69  1  0
 69 70  2  0
 69 77  1  0
 70 71  1  0
 71 72  2  0
 72 73  1  0
 72 76  1  0
 73 74  1  0
 73 75  2  0
 76 77  2  0
 25 78  1  0
 36 79  1  0
 48 80  1  0
 75 81  1  0
M  CHG  3   1   1  57   1  66   1
M  END
$$$$
