
     RDKit          3D

 81 83  0  0  0  0  0  0  0  0999 V2000
   51.3188  -34.4562   -8.4038 N   0  0  0  0  0  4  0  0  0  0  0  0
   51.9685  -35.6493   -7.7187 C   0  0  2  0  0  0  0  0  0  0  0  0
   51.2338  -36.9137   -8.1961 C   0  0  0  0  0  0  0  0  0  0  0  0
   51.5362  -37.4217   -9.2882 O   0  0  0  0  0  0  0  0  0  0  0  0
   51.8959  -35.5215   -6.1824 C   0  0  0  0  0  0  0  0  0  0  0  0
   51.2589  -34.2346   -5.7014 C   0  0  0  0  0  0  0  0  0  0  0  0
   52.0718  -33.0879   -5.6443 C   0  0  0  0  0  0  0  0  0  0  0  0
   51.5365  -31.8515   -5.3018 C   0  0  0  0  0  0  0  0  0  0  0  0
   49.8631  -34.1349   -5.4039 C   0  0  0  0  0  0  0  0  0  0  0  0
   49.3336  -32.8617   -5.0629 C   0  0  0  0  0  0  0  0  0  0  0  0
   50.1742  -31.7422   -5.0145 C   0  0  0  0  0  0  0  0  0  0  0  0
   48.9568  -35.2218   -5.4490 C   0  0  0  0  0  0  0  0  0  0  0  0
   47.5971  -35.0561   -5.1634 C   0  0  0  0  0  0  0  0  0  0  0  0
   47.1066  -33.8064   -4.8243 C   0  0  0  0  0  0  0  0  0  0  0  0
   47.9677  -32.7159   -4.7748 C   0  0  0  0  0  0  0  0  0  0  0  0
   50.2366  -37.4334   -7.4106 N   0  0  0  0  0  0  0  0  0  0  0  0
   49.4845  -38.6022   -7.9035 C   0  0  2  0  0  0  0  0  0  0  0  0
   48.6681  -38.2972   -9.1857 C   0  0  0  0  0  0  0  0  0  0  0  0
   48.3754  -39.1534  -10.0086 O   0  0  0  0  0  0  0  0  0  0  0  0
   48.5909  -39.1988   -6.8017 C   0  0  0  0  0  0  0  0  0  0  0  0
   48.5772  -40.7220   -6.6384 C   0  0  0  0  0  0  0  0  0  0  0  0
   49.5180  -41.3263   -5.5958 C   0  0  0  0  0  0  0  0  0  0  0  0
   49.5112  -42.7627   -5.6559 N   0  0  0  0  0  0  0  0  0  0  0  0
   48.5279  -43.5928   -5.2628 C   0  0  0  0  0  0  0  0  0  0  0  0
   47.6433  -44.1599   -6.0230 N   0  0  0  0  0  0  0  0  0  0  0  0
   48.5624  -43.7626   -3.9235 N   0  0  0  0  0  0  0  0  0  0  0  0
   48.1726  -37.0142   -9.2624 N   0  0  0  0  0  0  0  0  0  0  0  0
   47.3864  -36.5271  -10.3886 C   0  0  2  0  0  0  0  0  0  0  0  0
   48.3831  -36.2494  -11.5429 C   0  0  0  0  0  0  0  0  0  0  0  0
   48.3629  -35.1947  -12.1748 O   0  0  0  0  0  0  0  0  0  0  0  0
   46.6384  -35.2420   -9.9955 C   0  0  0  0  0  0  0  0  0  0  0  0
   45.7637  -35.4413   -8.7488 C   0  0  0  0  0  0  0  0  0  0  0  0
   44.3114  -35.0297   -9.0018 C   0  0  0  0  0  0  0  0  0  0  0  0
   43.8038  -35.7065  -10.1875 N   0  0  0  0  0  0  0  0  0  0  0  0
   42.4975  -35.6331  -10.5345 C   0  0  0  0  0  0  0  0  0  0  0  0
   41.7116  -34.6256  -10.4730 N   0  0  0  0  0  0  0  0  0  0  0  0
   42.0242  -36.8064  -10.9918 N   0  0  0  0  0  0  0  0  0  0  0  0
   49.3124  -37.2364  -11.7939 N   0  0  0  0  0  0  0  0  0  0  0  0
   50.4246  -36.9939  -12.7034 C   0  0  2  0  0  0  0  0  0  0  0  0
   51.6271  -36.6051  -11.8192 C   0  0  0  0  0  0  0  0  0  0  0  0
   52.5155  -37.4203  -11.5627 O   0  0  0  0  0  0  0  0  0  0  0  0
   50.1651  -35.8140  -13.6551 C   0  0  0  0  0  0  0  0  0  0  0  0
   51.2435  -35.5801  -14.7088 C   0  0  0  0  0  0  0  0  0  0  0  0
   50.9310  -34.4704  -15.7191 C   0  0  0  0  0  0  0  0  0  0  0  0
   51.6296  -33.2220  -15.3856 N   0  0  0  0  0  0  0  0  0  0  0  0
   51.7840  -32.2601  -16.3180 C   0  0  0  0  0  0  0  0  0  0  0  0
   51.1274  -32.5123  -17.4642 N   0  0  0  0  0  0  0  0  0  0  0  0
   52.4223  -31.1556  -16.0997 N   0  0  0  0  0  0  0  0  0  0  0  0
   52.2317  -34.9691   -8.8913 C   0  0  0  0  0  0  0  0  0  0  0  0
   51.5871  -35.3546  -11.2518 N   0  0  0  0  0  0  0  0  0  0  0  0
   51.2664  -34.3533   -8.4525 O   0  0  0  0  0  0  0  0  0  0  0  0
   52.6664  -34.8976  -10.3724 C   0  0  1  0  0  0  0  0  0  0  0  0
   53.2098  -33.5019  -10.7315 C   0  0  0  0  0  0  0  0  0  0  0  0
   54.2939  -31.9403  -12.4410 C   0  0  0  0  0  0  0  0  0  0  0  0
   53.1296  -30.9481  -12.5566 C   0  0  0  0  0  0  0  0  0  0  0  0
   53.8222  -33.3769  -12.1351 C   0  0  0  0  0  0  0  0  0  0  0  0
   53.6685  -29.5836  -12.7577 N   0  0  0  0  0  4  0  0  0  0  0  0
   53.0318  -35.7796   -8.1048 N   0  0  0  0  0  0  0  0  0  0  0  0
   52.6472  -36.0340   -6.7126 C   0  0  2  0  0  0  0  0  0  0  0  0
   53.9619  -36.1590   -5.9112 C   0  0  0  0  0  0  0  0  0  0  0  0
   54.9581  -36.7037   -6.3849 O   0  0  0  0  0  0  0  0  0  0  0  0
   51.8014  -37.3054   -6.5606 C   0  0  0  0  0  0  0  0  0  0  0  0
   51.0214  -37.6648   -7.8308 C   0  0  0  0  0  0  0  0  0  0  0  0
   49.6955  -36.9156   -8.0339 C   0  0  0  0  0  0  0  0  0  0  0  0
   48.6942  -37.1992   -6.9256 C   0  0  0  0  0  0  0  0  0  0  0  0
   48.0183  -35.9432   -6.5384 N   0  0  0  0  0  4  0  0  0  0  0  0
   53.8911  -35.6594   -4.6262 N   0  0  0  0  0  0  0  0  0  0  0  0
   54.9879  -35.8212   -3.6930 C   0  0  0  0  0  0  0  0  0  0  0  0
   54.6790  -35.1112   -2.4002 C   0  0  0  0  0  0  0  0  0  0  0  0
   53.6662  -34.1477   -2.3437 C   0  0  0  0  0  0  0  0  0  0  0  0
   53.3973  -33.4788   -1.1486 C   0  0  0  0  0  0  0  0  0  0  0  0
   54.1397  -33.7688    0.0069 C   0  0  0  0  0  0  0  0  0  0  0  0
   53.7956  -33.0725    1.2846 C   0  0  0  0  0  0  0  0  0  0  0  0
   53.0569  -31.9293    1.2742 N   0  0  0  0  0  0  0  0  0  0  0  0
   54.2242  -33.5612    2.4018 N   0  0  0  0  0  0  0  0  0  0  0  0
   55.1704  -34.7138   -0.0487 C   0  0  0  0  0  0  0  0  0  0  0  0
   55.4445  -35.3756   -1.2510 C   0  0  0  0  0  0  0  0  0  0  0  0
   47.1546  -44.8436   -5.4283 H   0  0  0  0  0  0  0  0  0  0  0  0
   41.8089  -34.1604   -9.5752 H   0  0  0  0  0  0  0  0  0  0  0  0
   52.6914  -31.1642  -15.0976 H   0  0  0  0  0  0  0  0  0  0  0  0
   54.7812  -34.3972    2.2166 H   0  0  0  0  0  0  0  0  0  0  0  0
  2  1  1  6
  3  2  1  0
  2  5  1  0
  3  4  2  0
 16  3  1  0
  5  6  1  0
  6  7  2  0
  6  9  1  0
  7  8  1  0
  8 11  2  0
  9 10  2  0
  9 12  1  0
 10 11  1  0
 10 15  1  0
 12 13  2  0
 13 14  1  0
 15 14  2  0
 17 16  1  0
 18 17  1  0
 17 20  1  1
 18 19  2  0
 27 18  1  0
 20 21  1  0
 21 22  1  0
 22 23  1  0
 23 24  1  0
 24 25  2  0
 24 26  1  0
 28 27  1  0
 29 28  1  0
 28 31  1  1
 29 30  2  0
 38 29  1  0
 31 32  1  0
 32 33  1  0
 33 34  1  0
 34 35  1  0
 35 36  2  0
 35 37  1  0
 39 38  1  0
 40 39  1  0
 39 42  1  6
 40 41  2  0
 50 40  1  0
 42 43  1  0
 43 44  1  0
 44 45  1  0
 45 46  1  0
 46 47  1  0
 46 48  2  0
 49 51  2  0
 52 49  1  0
 49 58  1  0
 52 50  1  0
 52 53  1  6
 56 53  1  0
 54 55  1  0
 54 56  1  0
 55 57  1  0
 58 59  1  0
 59 60  1  0
 59 62  1  6
 60 61  2  0
 60 67  1  0
 62 63  1  0
 63 64  1  0
 64 65  1  0
 65 66  1  0
 67 68  1  0
 68 69  1  0
 69 70  2  0
 69 77  1  0
 70 71  1  0
 71 72  2  0
 72 73  1  0
 72 76  1  0
 73 74  1  0
 73 75  2  0
 76 77  2  0
 25 78  1  0
 36 79  1  0
 48 80  1  0
 75 81  1  0
M  CHG  3   1   1  57   1  66   1
M  END
$$$$
