
     RDKit          3D

 81 83  0  0  0  0  0  0  0  0999 V2000
   57.9646  -32.4783   -2.7041 N   0  0  0  0  0  4  0  0  0  0  0  0
   57.2897  -31.7758   -3.8728 C   0  0  2  0  0  0  0  0  0  0  0  0
   56.5311  -32.8437   -4.6793 C   0  0  0  0  0  0  0  0  0  0  0  0
   55.9074  -32.5113   -5.7003 O   0  0  0  0  0  0  0  0  0  0  0  0
   58.3214  -31.0493   -4.7615 C   0  0  0  0  0  0  0  0  0  0  0  0
   59.0110  -29.8864   -4.0792 C   0  0  0  0  0  0  0  0  0  0  0  0
   58.3347  -29.2624   -3.0152 C   0  0  0  0  0  0  0  0  0  0  0  0
   58.9420  -28.2501   -2.2811 C   0  0  0  0  0  0  0  0  0  0  0  0
   60.3402  -29.4790   -4.4163 C   0  0  0  0  0  0  0  0  0  0  0  0
   60.9463  -28.4478   -3.6502 C   0  0  0  0  0  0  0  0  0  0  0  0
   60.2413  -27.8482   -2.5987 C   0  0  0  0  0  0  0  0  0  0  0  0
   61.1127  -30.0528   -5.4550 C   0  0  0  0  0  0  0  0  0  0  0  0
   62.4161  -29.6212   -5.7247 C   0  0  0  0  0  0  0  0  0  0  0  0
   62.9815  -28.6076   -4.9695 C   0  0  0  0  0  0  0  0  0  0  0  0
   62.2530  -28.0247   -3.9387 C   0  0  0  0  0  0  0  0  0  0  0  0
   56.5395  -34.1395   -4.2294 N   0  0  0  0  0  0  0  0  0  0  0  0
   55.5619  -35.0898   -4.7916 C   0  0  2  0  0  0  0  0  0  0  0  0
   54.1857  -34.4381   -5.0825 C   0  0  0  0  0  0  0  0  0  0  0  0
   53.6795  -33.5967   -4.3533 O   0  0  0  0  0  0  0  0  0  0  0  0
   55.4125  -36.3340   -3.8982 C   0  0  0  0  0  0  0  0  0  0  0  0
   54.4101  -37.4089   -4.3307 C   0  0  0  0  0  0  0  0  0  0  0  0
   54.3582  -38.6951   -3.5059 C   0  0  0  0  0  0  0  0  0  0  0  0
   55.6786  -39.1559   -3.1727 N   0  0  0  0  0  0  0  0  0  0  0  0
   56.4599  -39.9855   -3.8882 C   0  0  0  0  0  0  0  0  0  0  0  0
   57.6754  -40.3393   -3.6067 N   0  0  0  0  0  0  0  0  0  0  0  0
   55.8066  -40.4143   -4.9897 N   0  0  0  0  0  0  0  0  0  0  0  0
   53.6352  -34.7721   -6.3002 N   0  0  0  0  0  0  0  0  0  0  0  0
   52.2137  -34.6466   -6.5961 C   0  0  2  0  0  0  0  0  0  0  0  0
   51.5669  -36.0175   -6.2720 C   0  0  0  0  0  0  0  0  0  0  0  0
   52.1324  -37.0774   -6.5346 O   0  0  0  0  0  0  0  0  0  0  0  0
   52.0113  -34.2868   -8.0777 C   0  0  0  0  0  0  0  0  0  0  0  0
   52.5998  -32.9108   -8.4235 C   0  0  0  0  0  0  0  0  0  0  0  0
   52.2186  -32.4691   -9.8385 C   0  0  0  0  0  0  0  0  0  0  0  0
   53.1137  -33.0854  -10.8082 N   0  0  0  0  0  0  0  0  0  0  0  0
   54.4465  -32.8506  -10.7842 C   0  0  0  0  0  0  0  0  0  0  0  0
   55.3511  -33.4577  -10.1138 N   0  0  0  0  0  0  0  0  0  0  0  0
   54.7998  -31.8314  -11.5880 N   0  0  0  0  0  0  0  0  0  0  0  0
   50.3410  -35.9773   -5.6424 N   0  0  0  0  0  0  0  0  0  0  0  0
   49.9980  -36.9606   -4.6234 C   0  0  2  0  0  0  0  0  0  0  0  0
   48.9760  -37.9157   -5.2733 C   0  0  0  0  0  0  0  0  0  0  0  0
   48.5933  -38.9299   -4.6862 O   0  0  0  0  0  0  0  0  0  0  0  0
   49.3114  -36.3309   -3.3998 C   0  0  0  0  0  0  0  0  0  0  0  0
   49.8619  -36.7727   -2.0472 C   0  0  0  0  0  0  0  0  0  0  0  0
   50.5635  -35.6719   -1.2434 C   0  0  0  0  0  0  0  0  0  0  0  0
   49.6443  -34.5760   -0.9094 N   0  0  0  0  0  0  0  0  0  0  0  0
   50.0218  -33.6124   -0.0447 C   0  0  0  0  0  0  0  0  0  0  0  0
   51.3137  -33.6939    0.3201 N   0  0  0  0  0  0  0  0  0  0  0  0
   49.2446  -32.6459    0.3250 N   0  0  0  0  0  0  0  0  0  0  0  0
   47.1306  -37.5786   -8.5505 C   0  0  0  0  0  0  0  0  0  0  0  0
   48.6150  -37.6324   -6.5682 N   0  0  0  0  0  0  0  0  0  0  0  0
   47.9985  -36.9649   -9.1619 O   0  0  0  0  0  0  0  0  0  0  0  0
   47.2966  -38.0177   -7.0783 C   0  0  1  0  0  0  0  0  0  0  0  0
   46.1260  -37.5216   -6.2088 C   0  0  0  0  0  0  0  0  0  0  0  0
   44.8225  -37.6335   -4.0124 C   0  0  0  0  0  0  0  0  0  0  0  0
   43.6783  -38.6548   -4.0522 C   0  0  0  0  0  0  0  0  0  0  0  0
   46.0685  -38.1067   -4.7893 C   0  0  0  0  0  0  0  0  0  0  0  0
   43.8354  -39.6085   -2.9304 N   0  0  0  0  0  4  0  0  0  0  0  0
   45.9156  -37.9301   -9.1127 N   0  0  0  0  0  0  0  0  0  0  0  0
   45.8830  -38.4528  -10.4825 C   0  0  2  0  0  0  0  0  0  0  0  0
   44.7634  -37.6835  -11.2180 C   0  0  0  0  0  0  0  0  0  0  0  0
   43.8584  -38.2696  -11.8105 O   0  0  0  0  0  0  0  0  0  0  0  0
   45.6173  -39.9635  -10.5279 C   0  0  0  0  0  0  0  0  0  0  0  0
   45.6321  -40.5347  -11.9507 C   0  0  0  0  0  0  0  0  0  0  0  0
   44.6003  -41.6363  -12.2381 C   0  0  0  0  0  0  0  0  0  0  0  0
   44.7794  -42.2523  -13.6165 C   0  0  0  0  0  0  0  0  0  0  0  0
   43.9748  -43.4883  -13.7125 N   0  0  0  0  0  4  0  0  0  0  0  0
   44.9069  -36.3108  -11.1894 N   0  0  0  0  0  0  0  0  0  0  0  0
   46.2161  -35.6900  -11.1655 C   0  0  0  0  0  0  0  0  0  0  0  0
   46.8258  -35.7101  -12.5435 C   0  0  0  0  0  0  0  0  0  0  0  0
   46.3156  -34.8926  -13.5577 C   0  0  0  0  0  0  0  0  0  0  0  0
   46.8713  -34.9295  -14.8374 C   0  0  0  0  0  0  0  0  0  0  0  0
   47.9478  -35.7859  -15.1168 C   0  0  0  0  0  0  0  0  0  0  0  0
   48.5548  -35.7670  -16.4833 C   0  0  0  0  0  0  0  0  0  0  0  0
   47.8896  -35.2059  -17.5298 N   0  0  0  0  0  0  0  0  0  0  0  0
   49.7151  -36.3073  -16.6630 N   0  0  0  0  0  0  0  0  0  0  0  0
   48.4471  -36.6240  -14.1135 C   0  0  0  0  0  0  0  0  0  0  0  0
   47.8813  -36.5923  -12.8339 C   0  0  0  0  0  0  0  0  0  0  0  0
   57.8583  -39.9931   -2.6546 H   0  0  0  0  0  0  0  0  0  0  0  0
   54.9335  -33.9519   -9.3305 H   0  0  0  0  0  0  0  0  0  0  0  0
   49.7421  -32.1416    1.0831 H   0  0  0  0  0  0  0  0  0  0  0  0
   49.6152  -37.3231  -16.7043 H   0  0  0  0  0  0  0  0  0  0  0  0
  2  1  1  1
  3  2  1  0
  2  5  1  0
  3  4  2  0
 16  3  1  0
  5  6  1  0
  6  7  2  0
  6  9  1  0
  7  8  1  0
  8 11  2  0
  9 10  2  0
  9 12  1  0
 10 11  1  0
 10 15  1  0
 12 13  2  0
 13 14  1  0
 15 14  2  0
 17 16  1  0
 18 17  1  0
 17 20  1  1
 18 19  2  0
 27 18  1  0
 20 21  1  0
 21 22  1  0
 22 23  1  0
 23 24  1  0
 24 25  2  0
 24 26  1  0
 28 27  1  0
 29 28  1  0
 28 31  1  6
 29 30  2  0
 38 29  1  0
 31 32  1  0
 32 33  1  0
 33 34  1  0
 34 35  1  0
 35 36  2  0
 35 37  1  0
 39 38  1  0
 40 39  1  0
 39 42  1  1
 40 41  2  0
 50 40  1  0
 42 43  1  0
 43 44  1  0
 44 45  1  0
 45 46  1  0
 46 47  1  0
 46 48  2  0
 49 51  2  0
 52 49  1  0
 49 58  1  0
 52 50  1  0
 52 53  1  1
 56 53  1  0
 54 55  1  0
 54 56  1  0
 55 57  1  0
 58 59  1  0
 59 60  1  0
 59 62  1  1
 60 61  2  0
 60 67  1  0
 62 63  1  0
 63 64  1  0
 64 65  1  0
 65 66  1  0
 67 68  1  0
 68 69  1  0
 69 70  2  0
 69 77  1  0
 70 71  1  0
 71 72  2  0
 72 73  1  0
 72 76  1  0
 73 74  1  0
 73 75  2  0
 76 77  2  0
 25 78  1  0
 36 79  1  0
 48 80  1  0
 75 81  1  0
M  CHG  3   1   1  57   1  66   1
M  END
$$$$
