
     RDKit          3D

 81 83  0  0  0  0  0  0  0  0999 V2000
   56.5809  -32.0150   -3.7453 N   0  0  0  0  0  4  0  0  0  0  0  0
   56.9159  -31.5324   -5.1487 C   0  0  2  0  0  0  0  0  0  0  0  0
   57.8183  -32.5941   -5.8003 C   0  0  0  0  0  0  0  0  0  0  0  0
   58.7566  -32.2354   -6.5303 O   0  0  0  0  0  0  0  0  0  0  0  0
   57.6213  -30.1601   -5.1161 C   0  0  0  0  0  0  0  0  0  0  0  0
   57.5001  -29.4372   -3.7909 C   0  0  0  0  0  0  0  0  0  0  0  0
   56.6212  -28.3407   -3.7259 C   0  0  0  0  0  0  0  0  0  0  0  0
   56.3872  -27.6857   -2.5222 C   0  0  0  0  0  0  0  0  0  0  0  0
   58.1654  -29.8891   -2.6078 C   0  0  0  0  0  0  0  0  0  0  0  0
   57.9080  -29.2113   -1.3864 C   0  0  0  0  0  0  0  0  0  0  0  0
   57.0277  -28.1219   -1.3604 C   0  0  0  0  0  0  0  0  0  0  0  0
   59.0534  -30.9909   -2.5618 C   0  0  0  0  0  0  0  0  0  0  0  0
   59.6606  -31.3951   -1.3676 C   0  0  0  0  0  0  0  0  0  0  0  0
   59.4007  -30.7121   -0.1915 C   0  0  0  0  0  0  0  0  0  0  0  0
   58.5301  -29.6281   -0.1993 C   0  0  0  0  0  0  0  0  0  0  0  0
   57.5426  -33.9196   -5.5796 N   0  0  0  0  0  0  0  0  0  0  0  0
   56.9144  -34.7011   -6.6609 C   0  0  2  0  0  0  0  0  0  0  0  0
   55.8037  -35.6540   -6.1495 C   0  0  0  0  0  0  0  0  0  0  0  0
   55.1240  -36.3458   -6.8948 O   0  0  0  0  0  0  0  0  0  0  0  0
   57.9667  -35.4626   -7.4861 C   0  0  0  0  0  0  0  0  0  0  0  0
   57.4761  -36.3080   -8.6658 C   0  0  0  0  0  0  0  0  0  0  0  0
   58.5112  -37.1624   -9.3978 C   0  0  0  0  0  0  0  0  0  0  0  0
   57.9101  -38.3373   -9.9680 N   0  0  0  0  0  0  0  0  0  0  0  0
   57.2680  -38.4373  -11.1462 C   0  0  0  0  0  0  0  0  0  0  0  0
   56.1845  -37.8145  -11.4929 N   0  0  0  0  0  0  0  0  0  0  0  0
   57.9036  -39.3115  -11.9560 N   0  0  0  0  0  0  0  0  0  0  0  0
   55.7313  -35.7725   -4.7790 N   0  0  0  0  0  0  0  0  0  0  0  0
   54.7125  -36.5609   -4.0976 C   0  0  2  0  0  0  0  0  0  0  0  0
   53.4382  -35.6808   -4.0286 C   0  0  0  0  0  0  0  0  0  0  0  0
   53.2060  -34.9539   -3.0644 O   0  0  0  0  0  0  0  0  0  0  0  0
   55.1907  -36.9363   -2.6849 C   0  0  0  0  0  0  0  0  0  0  0  0
   55.1853  -35.7303   -1.7338 C   0  0  0  0  0  0  0  0  0  0  0  0
   55.4391  -36.1490   -0.2836 C   0  0  0  0  0  0  0  0  0  0  0  0
   54.1718  -36.4021    0.3882 N   0  0  0  0  0  0  0  0  0  0  0  0
   54.1294  -36.8801    1.6539 C   0  0  0  0  0  0  0  0  0  0  0  0
   55.1043  -37.1861    2.4236 N   0  0  0  0  0  0  0  0  0  0  0  0
   52.8695  -37.0343    2.0993 N   0  0  0  0  0  0  0  0  0  0  0  0
   52.6024  -35.7348   -5.1238 N   0  0  0  0  0  0  0  0  0  0  0  0
   51.3577  -34.9778   -5.1448 C   0  0  2  0  0  0  0  0  0  0  0  0
   50.7942  -35.1151   -6.5740 C   0  0  0  0  0  0  0  0  0  0  0  0
   51.4017  -34.6536   -7.5424 O   0  0  0  0  0  0  0  0  0  0  0  0
   51.5728  -33.4768   -4.8878 C   0  0  0  0  0  0  0  0  0  0  0  0
   50.3076  -32.6246   -4.9193 C   0  0  0  0  0  0  0  0  0  0  0  0
   49.5417  -32.5542   -3.5933 C   0  0  0  0  0  0  0  0  0  0  0  0
   50.4522  -32.4194   -2.4486 N   0  0  0  0  0  0  0  0  0  0  0  0
   50.6087  -33.4400   -1.5812 C   0  0  0  0  0  0  0  0  0  0  0  0
   49.4568  -33.8513   -1.0219 N   0  0  0  0  0  0  0  0  0  0  0  0
   51.7418  -34.0312   -1.3773 N   0  0  0  0  0  0  0  0  0  0  0  0
   47.9148  -36.4922   -8.3615 C   0  0  0  0  0  0  0  0  0  0  0  0
   49.5423  -35.6700   -6.6847 N   0  0  0  0  0  0  0  0  0  0  0  0
   46.8741  -36.3119   -7.7386 O   0  0  0  0  0  0  0  0  0  0  0  0
   49.2756  -36.7240   -7.6670 C   0  0  1  0  0  0  0  0  0  0  0  0
   49.3765  -38.1488   -7.0905 C   0  0  0  0  0  0  0  0  0  0  0  0
   51.4655  -39.1785   -8.1448 C   0  0  0  0  0  0  0  0  0  0  0  0
   52.0670  -40.5803   -7.9811 C   0  0  0  0  0  0  0  0  0  0  0  0
   50.8053  -38.6603   -6.8504 C   0  0  0  0  0  0  0  0  0  0  0  0
   53.4845  -40.4588   -7.5703 N   0  0  0  0  0  4  0  0  0  0  0  0
   47.9735  -36.5155   -9.7441 N   0  0  0  0  0  0  0  0  0  0  0  0
   46.7403  -36.3385  -10.5178 C   0  0  2  0  0  0  0  0  0  0  0  0
   45.9069  -37.6230  -10.3130 C   0  0  0  0  0  0  0  0  0  0  0  0
   46.3765  -38.7393  -10.5295 O   0  0  0  0  0  0  0  0  0  0  0  0
   47.0123  -36.1058  -12.0101 C   0  0  0  0  0  0  0  0  0  0  0  0
   48.0709  -35.0270  -12.2678 C   0  0  0  0  0  0  0  0  0  0  0  0
   48.3952  -34.7496  -13.7438 C   0  0  0  0  0  0  0  0  0  0  0  0
   48.6633  -33.2772  -14.0112 C   0  0  0  0  0  0  0  0  0  0  0  0
   48.5159  -33.0038  -15.4561 N   0  0  0  0  0  4  0  0  0  0  0  0
   44.6018  -37.3950   -9.9249 N   0  0  0  0  0  0  0  0  0  0  0  0
   43.6669  -38.4876   -9.7454 C   0  0  0  0  0  0  0  0  0  0  0  0
   43.6122  -38.8914   -8.2946 C   0  0  0  0  0  0  0  0  0  0  0  0
   44.6710  -39.5977   -7.7138 C   0  0  0  0  0  0  0  0  0  0  0  0
   44.6067  -39.9865   -6.3749 C   0  0  0  0  0  0  0  0  0  0  0  0
   43.4799  -39.6705   -5.5998 C   0  0  0  0  0  0  0  0  0  0  0  0
   43.4612  -40.0561   -4.1551 C   0  0  0  0  0  0  0  0  0  0  0  0
   44.5289  -40.6842   -3.5912 N   0  0  0  0  0  0  0  0  0  0  0  0
   42.4083  -39.8008   -3.4502 N   0  0  0  0  0  0  0  0  0  0  0  0
   42.4069  -38.9856   -6.1810 C   0  0  0  0  0  0  0  0  0  0  0  0
   42.4697  -38.6059   -7.5266 C   0  0  0  0  0  0  0  0  0  0  0  0
   56.2605  -36.8690  -11.0927 H   0  0  0  0  0  0  0  0  0  0  0  0
   55.9884  -36.9938    1.9616 H   0  0  0  0  0  0  0  0  0  0  0  0
   52.4757  -33.3947   -1.7418 H   0  0  0  0  0  0  0  0  0  0  0  0
   41.6988  -39.3661   -4.0427 H   0  0  0  0  0  0  0  0  0  0  0  0
  2  1  1  1
  3  2  1  0
  2  5  1  0
  3  4  2  0
 16  3  1  0
  5  6  1  0
  6  7  2  0
  6  9  1  0
  7  8  1  0
  8 11  2  0
  9 10  2  0
  9 12  1  0
 10 11  1  0
 10 15  1  0
 12 13  2  0
 13 14  1  0
 15 14  2  0
 17 16  1  0
 18 17  1  0
 17 20  1  1
 18 19  2  0
 27 18  1  0
 20 21  1  0
 21 22  1  0
 22 23  1  0
 23 24  1  0
 24 25  2  0
 24 26  1  0
 28 27  1  0
 29 28  1  0
 28 31  1  1
 29 30  2  0
 38 29  1  0
 31 32  1  0
 32 33  1  0
 33 34  1  0
 34 35  1  0
 35 36  2  0
 35 37  1  0
 39 38  1  0
 40 39  1  0
 39 42  1  6
 40 41  2  0
 50 40  1  0
 42 43  1  0
 43 44  1  0
 44 45  1  0
 45 46  1  0
 46 47  1  0
 46 48  2  0
 49 51  2  0
 52 49  1  0
 49 58  1  0
 52 50  1  0
 52 53  1  1
 56 53  1  0
 54 55  1  0
 54 56  1  0
 55 57  1  0
 58 59  1  0
 59 60  1  0
 59 62  1  6
 60 61  2  0
 60 67  1  0
 62 63  1  0
 63 64  1  0
 64 65  1  0
 65 66  1  0
 67 68  1  0
 68 69  1  0
 69 70  2  0
 69 77  1  0
 70 71  1  0
 71 72  2  0
 72 73  1  0
 72 76  1  0
 73 74  1  0
 73 75  2  0
 76 77  2  0
 25 78  1  0
 36 79  1  0
 48 80  1  0
 75 81  1  0
M  CHG  3   1   1  57   1  66   1
M  END
$$$$
