
     RDKit          3D

 81 83  0  0  0  0  0  0  0  0999 V2000
   55.6793  -34.0149   -2.9095 N   0  0  0  0  0  4  0  0  0  0  0  0
   55.4842  -35.4408   -3.4030 C   0  0  2  0  0  0  0  0  0  0  0  0
   54.1882  -35.4709   -4.2310 C   0  0  0  0  0  0  0  0  0  0  0  0
   53.5061  -34.4387   -4.3379 O   0  0  0  0  0  0  0  0  0  0  0  0
   55.4047  -36.4355   -2.2257 C   0  0  0  0  0  0  0  0  0  0  0  0
   54.7339  -35.8737   -0.9896 C   0  0  0  0  0  0  0  0  0  0  0  0
   54.4286  -36.7711    0.0497 C   0  0  0  0  0  0  0  0  0  0  0  0
   53.8978  -36.3157    1.2512 C   0  0  0  0  0  0  0  0  0  0  0  0
   54.4972  -34.4736   -0.8156 C   0  0  0  0  0  0  0  0  0  0  0  0
   53.9609  -34.0270    0.4215 C   0  0  0  0  0  0  0  0  0  0  0  0
   53.6676  -34.9504    1.4333 C   0  0  0  0  0  0  0  0  0  0  0  0
   54.7849  -33.4874   -1.7899 C   0  0  0  0  0  0  0  0  0  0  0  0
   54.5461  -32.1292   -1.5525 C   0  0  0  0  0  0  0  0  0  0  0  0
   54.0138  -31.7198   -0.3415 C   0  0  0  0  0  0  0  0  0  0  0  0
   53.7235  -32.6610    0.6398 C   0  0  0  0  0  0  0  0  0  0  0  0
   53.8021  -36.6533   -4.8092 N   0  0  0  0  0  0  0  0  0  0  0  0
   52.5668  -36.6769   -5.6144 C   0  0  2  0  0  0  0  0  0  0  0  0
   51.3303  -36.1567   -4.8374 C   0  0  0  0  0  0  0  0  0  0  0  0
   50.4038  -36.8797   -4.4984 O   0  0  0  0  0  0  0  0  0  0  0  0
   52.3084  -38.0750   -6.2032 C   0  0  0  0  0  0  0  0  0  0  0  0
   52.4586  -39.2823   -5.2720 C   0  0  0  0  0  0  0  0  0  0  0  0
   53.8713  -39.6475   -4.8158 C   0  0  0  0  0  0  0  0  0  0  0  0
   53.8602  -40.7922   -3.9462 N   0  0  0  0  0  0  0  0  0  0  0  0
   54.9224  -41.4594   -3.4592 C   0  0  0  0  0  0  0  0  0  0  0  0
   55.2889  -41.5309   -2.2172 N   0  0  0  0  0  0  0  0  0  0  0  0
   55.6003  -42.0606   -4.4607 N   0  0  0  0  0  0  0  0  0  0  0  0
   51.4152  -34.8434   -4.4306 N   0  0  0  0  0  0  0  0  0  0  0  0
   51.9565  -33.7807   -5.2681 C   0  0  2  0  0  0  0  0  0  0  0  0
   50.7865  -32.8096   -5.5700 C   0  0  0  0  0  0  0  0  0  0  0  0
   50.5703  -31.8209   -4.8716 O   0  0  0  0  0  0  0  0  0  0  0  0
   52.5234  -34.3701   -6.5707 C   0  0  0  0  0  0  0  0  0  0  0  0
   53.2459  -33.3115   -7.4171 C   0  0  0  0  0  0  0  0  0  0  0  0
   53.8726  -33.9197   -8.6741 C   0  0  0  0  0  0  0  0  0  0  0  0
   53.5375  -33.1091   -9.8369 N   0  0  0  0  0  0  0  0  0  0  0  0
   53.2318  -33.6777  -11.0266 C   0  0  0  0  0  0  0  0  0  0  0  0
   53.1804  -34.9202  -11.3267 N   0  0  0  0  0  0  0  0  0  0  0  0
   52.9612  -32.7629  -11.9750 N   0  0  0  0  0  0  0  0  0  0  0  0
   50.0281  -33.0998   -6.6843 N   0  0  0  0  0  0  0  0  0  0  0  0
   48.6037  -33.3797   -6.5595 C   0  0  2  0  0  0  0  0  0  0  0  0
   48.3563  -34.7000   -7.3176 C   0  0  0  0  0  0  0  0  0  0  0  0
   48.2918  -35.7742   -6.7161 O   0  0  0  0  0  0  0  0  0  0  0  0
   47.7282  -32.3061   -7.2273 C   0  0  0  0  0  0  0  0  0  0  0  0
   47.9164  -30.8896   -6.6924 C   0  0  0  0  0  0  0  0  0  0  0  0
   46.8665  -29.8760   -7.1616 C   0  0  0  0  0  0  0  0  0  0  0  0
   47.1450  -28.5295   -6.6450 N   0  0  0  0  0  0  0  0  0  0  0  0
   46.3827  -27.4845   -7.0264 C   0  0  0  0  0  0  0  0  0  0  0  0
   47.0952  -26.3987   -7.3756 N   0  0  0  0  0  0  0  0  0  0  0  0
   45.0949  -27.5485   -7.1385 N   0  0  0  0  0  0  0  0  0  0  0  0
   47.2384  -36.8355   -8.8768 C   0  0  0  0  0  0  0  0  0  0  0  0
   48.3294  -34.6196   -8.6888 N   0  0  0  0  0  0  0  0  0  0  0  0
   48.1052  -37.3499   -8.1784 O   0  0  0  0  0  0  0  0  0  0  0  0
   47.3738  -35.4134   -9.4658 C   0  0  1  0  0  0  0  0  0  0  0  0
   47.6855  -35.4573  -10.9736 C   0  0  0  0  0  0  0  0  0  0  0  0
   47.3333  -34.5012  -13.3183 C   0  0  0  0  0  0  0  0  0  0  0  0
   48.8409  -34.6928  -13.5280 C   0  0  0  0  0  0  0  0  0  0  0  0
   46.9470  -34.4149  -11.8272 C   0  0  0  0  0  0  0  0  0  0  0  0
   49.1718  -34.4456  -14.9500 N   0  0  0  0  0  4  0  0  0  0  0  0
   46.0601  -37.4784   -9.2144 N   0  0  0  0  0  0  0  0  0  0  0  0
   45.7861  -38.8101   -8.6646 C   0  0  2  0  0  0  0  0  0  0  0  0
   46.1246  -39.8226   -9.7812 C   0  0  0  0  0  0  0  0  0  0  0  0
   46.3178  -39.4638  -10.9420 O   0  0  0  0  0  0  0  0  0  0  0  0
   44.3273  -38.9711   -8.2164 C   0  0  0  0  0  0  0  0  0  0  0  0
   44.1579  -39.9706   -7.0661 C   0  0  0  0  0  0  0  0  0  0  0  0
   43.7559  -39.3670   -5.7116 C   0  0  0  0  0  0  0  0  0  0  0  0
   43.5546  -40.4281   -4.6415 C   0  0  0  0  0  0  0  0  0  0  0  0
   43.1808  -39.7788   -3.3675 N   0  0  0  0  0  4  0  0  0  0  0  0
   46.1350  -41.1395   -9.3670 N   0  0  0  0  0  0  0  0  0  0  0  0
   47.2839  -41.7081   -8.6912 C   0  0  0  0  0  0  0  0  0  0  0  0
   48.5339  -41.4635   -9.4965 C   0  0  0  0  0  0  0  0  0  0  0  0
   48.7129  -42.0861  -10.7364 C   0  0  0  0  0  0  0  0  0  0  0  0
   49.8812  -41.8716  -11.4692 C   0  0  0  0  0  0  0  0  0  0  0  0
   50.8853  -41.0279  -10.9688 C   0  0  0  0  0  0  0  0  0  0  0  0
   52.1035  -40.7775  -11.7990 C   0  0  0  0  0  0  0  0  0  0  0  0
   52.1111  -41.0761  -13.1269 N   0  0  0  0  0  0  0  0  0  0  0  0
   53.1588  -40.2889  -11.2350 N   0  0  0  0  0  0  0  0  0  0  0  0
   50.7233  -40.4212   -9.7182 C   0  0  0  0  0  0  0  0  0  0  0  0
   49.5552  -40.6462   -8.9810 C   0  0  0  0  0  0  0  0  0  0  0  0
   56.0477  -42.2259   -2.1850 H   0  0  0  0  0  0  0  0  0  0  0  0
   52.7003  -35.0465  -12.2130 H   0  0  0  0  0  0  0  0  0  0  0  0
   44.8970  -28.2803   -7.8469 H   0  0  0  0  0  0  0  0  0  0  0  0
   52.9167  -39.9352  -10.3077 H   0  0  0  0  0  0  0  0  0  0  0  0
  2  1  1  1
  3  2  1  0
  2  5  1  0
  3  4  2  0
 16  3  1  0
  5  6  1  0
  6  7  2  0
  6  9  1  0
  7  8  1  0
  8 11  2  0
  9 10  2  0
  9 12  1  0
 10 11  1  0
 10 15  1  0
 12 13  2  0
 13 14  1  0
 15 14  2  0
 17 16  1  0
 18 17  1  0
 17 20  1  1
 18 19  2  0
 27 18  1  0
 20 21  1  0
 21 22  1  0
 22 23  1  0
 23 24  1  0
 24 25  2  0
 24 26  1  0
 28 27  1  0
 29 28  1  0
 28 31  1  6
 29 30  2  0
 38 29  1  0
 31 32  1  0
 32 33  1  0
 33 34  1  0
 34 35  1  0
 35 36  2  0
 35 37  1  0
 39 38  1  0
 40 39  1  0
 39 42  1  6
 40 41  2  0
 50 40  1  0
 42 43  1  0
 43 44  1  0
 44 45  1  0
 45 46  1  0
 46 47  1  0
 46 48  2  0
 49 51  2  0
 52 49  1  0
 49 58  1  0
 52 50  1  0
 52 53  1  6
 56 53  1  0
 54 55  1  0
 54 56  1  0
 55 57  1  0
 58 59  1  0
 59 60  1  0
 59 62  1  6
 60 61  2  0
 60 67  1  0
 62 63  1  0
 63 64  1  0
 64 65  1  0
 65 66  1  0
 67 68  1  0
 68 69  1  0
 69 70  2  0
 69 77  1  0
 70 71  1  0
 71 72  2  0
 72 73  1  0
 72 76  1  0
 73 74  1  0
 73 75  2  0
 76 77  2  0
 25 78  1  0
 36 79  1  0
 48 80  1  0
 75 81  1  0
M  CHG  3   1   1  57   1  66   1
M  END
$$$$
