
     RDKit          3D

 81 83  0  0  0  0  0  0  0  0999 V2000
   58.2610  -31.7820   -0.2859 N   0  0  0  0  0  4  0  0  0  0  0  0
   56.8218  -31.5386   -0.7151 C   0  0  2  0  0  0  0  0  0  0  0  0
   56.3004  -32.8409   -1.3462 C   0  0  0  0  0  0  0  0  0  0  0  0
   57.0939  -33.6015   -1.9241 O   0  0  0  0  0  0  0  0  0  0  0  0
   56.7259  -30.3684   -1.7168 C   0  0  0  0  0  0  0  0  0  0  0  0
   57.9750  -30.1668   -2.5491 C   0  0  0  0  0  0  0  0  0  0  0  0
   58.8507  -29.1339   -2.1684 C   0  0  0  0  0  0  0  0  0  0  0  0
   60.0611  -28.9474   -2.8264 C   0  0  0  0  0  0  0  0  0  0  0  0
   58.3272  -31.0398   -3.6263 C   0  0  0  0  0  0  0  0  0  0  0  0
   59.5711  -30.8376   -4.2816 C   0  0  0  0  0  0  0  0  0  0  0  0
   60.4168  -29.7971   -3.8760 C   0  0  0  0  0  0  0  0  0  0  0  0
   57.5269  -32.1180   -4.0754 C   0  0  0  0  0  0  0  0  0  0  0  0
   57.9356  -32.9482   -5.1251 C   0  0  0  0  0  0  0  0  0  0  0  0
   59.1487  -32.7248   -5.7542 C   0  0  0  0  0  0  0  0  0  0  0  0
   59.9620  -31.6776   -5.3358 C   0  0  0  0  0  0  0  0  0  0  0  0
   54.9581  -33.1152   -1.2790 N   0  0  0  0  0  0  0  0  0  0  0  0
   54.4652  -34.3811   -1.8529 C   0  0  2  0  0  0  0  0  0  0  0  0
   54.5944  -34.4342   -3.3969 C   0  0  0  0  0  0  0  0  0  0  0  0
   55.6548  -34.6419   -3.9700 O   0  0  0  0  0  0  0  0  0  0  0  0
   53.0233  -34.6762   -1.4031 C   0  0  0  0  0  0  0  0  0  0  0  0
   52.7625  -34.8461    0.0970 C   0  0  0  0  0  0  0  0  0  0  0  0
   53.3541  -36.0799    0.7787 C   0  0  0  0  0  0  0  0  0  0  0  0
   53.6035  -35.8372    2.1736 N   0  0  0  0  0  0  0  0  0  0  0  0
   54.0769  -36.7085    3.0832 C   0  0  0  0  0  0  0  0  0  0  0  0
   54.3997  -37.9471    2.8742 N   0  0  0  0  0  0  0  0  0  0  0  0
   54.1670  -36.1207    4.2957 N   0  0  0  0  0  0  0  0  0  0  0  0
   53.3990  -34.3705   -4.0783 N   0  0  0  0  0  0  0  0  0  0  0  0
   53.2165  -34.9008   -5.4234 C   0  0  2  0  0  0  0  0  0  0  0  0
   51.7887  -35.5021   -5.4770 C   0  0  0  0  0  0  0  0  0  0  0  0
   51.1906  -35.8395   -4.4569 O   0  0  0  0  0  0  0  0  0  0  0  0
   54.2722  -35.9808   -5.7143 C   0  0  0  0  0  0  0  0  0  0  0  0
   54.0468  -37.2489   -4.8775 C   0  0  0  0  0  0  0  0  0  0  0  0
   55.0426  -38.3534   -5.2400 C   0  0  0  0  0  0  0  0  0  0  0  0
   56.4025  -37.8969   -4.9880 N   0  0  0  0  0  0  0  0  0  0  0  0
   57.4658  -38.7116   -5.1830 C   0  0  0  0  0  0  0  0  0  0  0  0
   57.7139  -39.4737   -6.1800 N   0  0  0  0  0  0  0  0  0  0  0  0
   58.3347  -38.6711   -4.1569 N   0  0  0  0  0  0  0  0  0  0  0  0
   51.2182  -35.6025   -6.7281 N   0  0  0  0  0  0  0  0  0  0  0  0
   49.8394  -35.1870   -6.9500 C   0  0  2  0  0  0  0  0  0  0  0  0
   49.5747  -35.3614   -8.4595 C   0  0  0  0  0  0  0  0  0  0  0  0
   49.9640  -34.5209   -9.2729 O   0  0  0  0  0  0  0  0  0  0  0  0
   49.6077  -33.7028   -6.6206 C   0  0  0  0  0  0  0  0  0  0  0  0
   49.4165  -32.7914   -7.8292 C   0  0  0  0  0  0  0  0  0  0  0  0
   50.2427  -31.5005   -7.8033 C   0  0  0  0  0  0  0  0  0  0  0  0
   49.8015  -30.5966   -6.7328 N   0  0  0  0  0  0  0  0  0  0  0  0
   48.5810  -30.0256   -6.7859 C   0  0  0  0  0  0  0  0  0  0  0  0
   47.9154  -30.0705   -5.6182 N   0  0  0  0  0  0  0  0  0  0  0  0
   48.1305  -29.4090   -7.8308 N   0  0  0  0  0  0  0  0  0  0  0  0
   47.0000  -37.6149  -10.0551 C   0  0  0  0  0  0  0  0  0  0  0  0
   48.7925  -36.4313   -8.8213 N   0  0  0  0  0  0  0  0  0  0  0  0
   46.7168  -38.0956  -11.1470 O   0  0  0  0  0  0  0  0  0  0  0  0
   47.8100  -36.3080   -9.9013 C   0  0  1  0  0  0  0  0  0  0  0  0
   48.4178  -35.8626  -11.2447 C   0  0  0  0  0  0  0  0  0  0  0  0
   50.5532  -34.8241  -12.1920 C   0  0  0  0  0  0  0  0  0  0  0  0
   51.4910  -33.6099  -12.1909 C   0  0  0  0  0  0  0  0  0  0  0  0
   49.4138  -34.6957  -11.1600 C   0  0  0  0  0  0  0  0  0  0  0  0
   51.1562  -32.7329  -13.3361 N   0  0  0  0  0  4  0  0  0  0  0  0
   46.6158  -38.1875   -8.8550 N   0  0  0  0  0  0  0  0  0  0  0  0
   45.8105  -39.4131   -8.8698 C   0  0  2  0  0  0  0  0  0  0  0  0
   44.4818  -39.0553   -9.5718 C   0  0  0  0  0  0  0  0  0  0  0  0
   44.3746  -38.0560  -10.2815 O   0  0  0  0  0  0  0  0  0  0  0  0
   45.5446  -39.9575   -7.4599 C   0  0  0  0  0  0  0  0  0  0  0  0
   46.8278  -40.1977   -6.6557 C   0  0  0  0  0  0  0  0  0  0  0  0
   46.8845  -39.5276   -5.2742 C   0  0  0  0  0  0  0  0  0  0  0  0
   48.1738  -39.8399   -4.5315 C   0  0  0  0  0  0  0  0  0  0  0  0
   48.0979  -39.2930   -3.1606 N   0  0  0  0  0  4  0  0  0  0  0  0
   43.4413  -39.9167   -9.2870 N   0  0  0  0  0  0  0  0  0  0  0  0
   42.1109  -39.6928   -9.8160 C   0  0  0  0  0  0  0  0  0  0  0  0
   41.6555  -40.8949  -10.6024 C   0  0  0  0  0  0  0  0  0  0  0  0
   40.9935  -41.9505   -9.9662 C   0  0  0  0  0  0  0  0  0  0  0  0
   40.5913  -43.0703  -10.6956 C   0  0  0  0  0  0  0  0  0  0  0  0
   40.8460  -43.1457  -12.0739 C   0  0  0  0  0  0  0  0  0  0  0  0
   40.3588  -44.3350  -12.8382 C   0  0  0  0  0  0  0  0  0  0  0  0
   40.1180  -45.5154  -12.2046 N   0  0  0  0  0  0  0  0  0  0  0  0
   40.1852  -44.2335  -14.1150 N   0  0  0  0  0  0  0  0  0  0  0  0
   41.5293  -42.1044  -12.7119 C   0  0  0  0  0  0  0  0  0  0  0  0
   41.9405  -40.9872  -11.9761 C   0  0  0  0  0  0  0  0  0  0  0  0
   55.3145  -37.9260    2.4023 H   0  0  0  0  0  0  0  0  0  0  0  0
   58.2706  -38.9774   -6.8697 H   0  0  0  0  0  0  0  0  0  0  0  0
   48.9578  -29.1603   -8.4055 H   0  0  0  0  0  0  0  0  0  0  0  0
   40.5624  -43.3416  -14.4402 H   0  0  0  0  0  0  0  0  0  0  0  0
  2  1  1  6
  3  2  1  0
  2  5  1  0
  3  4  2  0
 16  3  1  0
  5  6  1  0
  6  7  2  0
  6  9  1  0
  7  8  1  0
  8 11  2  0
  9 10  2  0
  9 12  1  0
 10 11  1  0
 10 15  1  0
 12 13  2  0
 13 14  1  0
 15 14  2  0
 17 16  1  0
 18 17  1  0
 17 20  1  6
 18 19  2  0
 27 18  1  0
 20 21  1  0
 21 22  1  0
 22 23  1  0
 23 24  1  0
 24 25  2  0
 24 26  1  0
 28 27  1  0
 29 28  1  0
 28 31  1  1
 29 30  2  0
 38 29  1  0
 31 32  1  0
 32 33  1  0
 33 34  1  0
 34 35  1  0
 35 36  2  0
 35 37  1  0
 39 38  1  0
 40 39  1  0
 39 42  1  6
 40 41  2  0
 50 40  1  0
 42 43  1  0
 43 44  1  0
 44 45  1  0
 45 46  1  0
 46 47  1  0
 46 48  2  0
 49 51  2  0
 52 49  1  0
 49 58  1  0
 52 50  1  0
 52 53  1  6
 56 53  1  0
 54 55  1  0
 54 56  1  0
 55 57  1  0
 58 59  1  0
 59 60  1  0
 59 62  1  1
 60 61  2  0
 60 67  1  0
 62 63  1  0
 63 64  1  0
 64 65  1  0
 65 66  1  0
 67 68  1  0
 68 69  1  0
 69 70  2  0
 69 77  1  0
 70 71  1  0
 71 72  2  0
 72 73  1  0
 72 76  1  0
 73 74  1  0
 73 75  2  0
 76 77  2  0
 25 78  1  0
 36 79  1  0
 48 80  1  0
 75 81  1  0
M  CHG  3   1   1  57   1  66   1
M  END
$$$$
