
     RDKit          3D

 81 83  0  0  0  0  0  0  0  0999 V2000
   54.4439  -39.5004  -11.1947 N   0  0  0  0  0  4  0  0  0  0  0  0
   53.9998  -39.5785  -12.6479 C   0  0  2  0  0  0  0  0  0  0  0  0
   52.5995  -38.9484  -12.7385 C   0  0  0  0  0  0  0  0  0  0  0  0
   52.4895  -37.7241  -12.9146 O   0  0  0  0  0  0  0  0  0  0  0  0
   53.9766  -41.0380  -13.1492 C   0  0  0  0  0  0  0  0  0  0  0  0
   54.8879  -41.2976  -14.3305 C   0  0  0  0  0  0  0  0  0  0  0  0
   54.4848  -40.8029  -15.5842 C   0  0  0  0  0  0  0  0  0  0  0  0
   55.3112  -40.9209  -16.6958 C   0  0  0  0  0  0  0  0  0  0  0  0
   56.1625  -41.9318  -14.1903 C   0  0  0  0  0  0  0  0  0  0  0  0
   56.9954  -42.0367  -15.3361 C   0  0  0  0  0  0  0  0  0  0  0  0
   56.5596  -41.5338  -16.5688 C   0  0  0  0  0  0  0  0  0  0  0  0
   56.6691  -42.4468  -12.9726 C   0  0  0  0  0  0  0  0  0  0  0  0
   57.9334  -43.0417  -12.8966 C   0  0  0  0  0  0  0  0  0  0  0  0
   58.7228  -43.1404  -14.0299 C   0  0  0  0  0  0  0  0  0  0  0  0
   58.2586  -42.6410  -15.2416 C   0  0  0  0  0  0  0  0  0  0  0  0
   51.5014  -39.7572  -12.5920 N   0  0  0  0  0  0  0  0  0  0  0  0
   50.1605  -39.1459  -12.6445 C   0  0  2  0  0  0  0  0  0  0  0  0
   49.6158  -38.7652  -11.2438 C   0  0  0  0  0  0  0  0  0  0  0  0
   48.5415  -38.2050  -11.0763 O   0  0  0  0  0  0  0  0  0  0  0  0
   49.1662  -40.0406  -13.4056 C   0  0  0  0  0  0  0  0  0  0  0  0
   49.6947  -40.8436  -14.5985 C   0  0  0  0  0  0  0  0  0  0  0  0
   48.7592  -41.8824  -15.2172 C   0  0  0  0  0  0  0  0  0  0  0  0
   49.0398  -43.2013  -14.7186 N   0  0  0  0  0  0  0  0  0  0  0  0
   50.0020  -44.0450  -15.1344 C   0  0  0  0  0  0  0  0  0  0  0  0
   50.8447  -44.6873  -14.3865 N   0  0  0  0  0  0  0  0  0  0  0  0
   49.9968  -44.1378  -16.4817 N   0  0  0  0  0  0  0  0  0  0  0  0
   50.3663  -39.2313  -10.1869 N   0  0  0  0  0  0  0  0  0  0  0  0
   50.0606  -38.9285   -8.7946 C   0  0  2  0  0  0  0  0  0  0  0  0
   50.6791  -37.5394   -8.4930 C   0  0  0  0  0  0  0  0  0  0  0  0
   51.8859  -37.3311   -8.6042 O   0  0  0  0  0  0  0  0  0  0  0  0
   50.6637  -40.0032   -7.8744 C   0  0  0  0  0  0  0  0  0  0  0  0
   49.5867  -40.7418   -7.0659 C   0  0  0  0  0  0  0  0  0  0  0  0
   48.2367  -40.7446   -7.7871 C   0  0  0  0  0  0  0  0  0  0  0  0
   47.5186  -41.9765   -7.4902 N   0  0  0  0  0  0  0  0  0  0  0  0
   46.2737  -42.1992   -7.9728 C   0  0  0  0  0  0  0  0  0  0  0  0
   45.3843  -41.3436   -8.3092 N   0  0  0  0  0  0  0  0  0  0  0  0
   45.9970  -43.5108   -8.0853 N   0  0  0  0  0  0  0  0  0  0  0  0
   49.7946  -36.5466   -8.1287 N   0  0  0  0  0  0  0  0  0  0  0  0
   50.2703  -35.2018   -7.8317 C   0  0  2  0  0  0  0  0  0  0  0  0
   49.7577  -34.8664   -6.4162 C   0  0  0  0  0  0  0  0  0  0  0  0
   48.5963  -35.1158   -6.0866 O   0  0  0  0  0  0  0  0  0  0  0  0
   49.6882  -34.1437   -8.7840 C   0  0  0  0  0  0  0  0  0  0  0  0
   48.1878  -33.9025   -8.6478 C   0  0  0  0  0  0  0  0  0  0  0  0
   47.6191  -32.8235   -9.5763 C   0  0  0  0  0  0  0  0  0  0  0  0
   46.3713  -33.2619  -10.2154 N   0  0  0  0  0  0  0  0  0  0  0  0
   46.3968  -33.8237  -11.4410 C   0  0  0  0  0  0  0  0  0  0  0  0
   45.3685  -34.6594  -11.6706 N   0  0  0  0  0  0  0  0  0  0  0  0
   47.2711  -33.5170  -12.3446 N   0  0  0  0  0  0  0  0  0  0  0  0
   50.2195  -33.1434   -3.3880 C   0  0  0  0  0  0  0  0  0  0  0  0
   50.6248  -34.1804   -5.6008 N   0  0  0  0  0  0  0  0  0  0  0  0
   50.4804  -32.0134   -3.7864 O   0  0  0  0  0  0  0  0  0  0  0  0
   50.6379  -34.4179   -4.1550 C   0  0  1  0  0  0  0  0  0  0  0  0
   51.9742  -34.9759   -3.6302 C   0  0  0  0  0  0  0  0  0  0  0  0
   54.2933  -34.5268   -2.6525 C   0  0  0  0  0  0  0  0  0  0  0  0
   54.0841  -34.6586   -1.1384 C   0  0  0  0  0  0  0  0  0  0  0  0
   53.0672  -33.9274   -3.3718 C   0  0  0  0  0  0  0  0  0  0  0  0
   55.3640  -34.3918   -0.4432 N   0  0  0  0  0  4  0  0  0  0  0  0
   49.5347  -33.3900   -2.2108 N   0  0  0  0  0  0  0  0  0  0  0  0
   49.0944  -32.2599   -1.3862 C   0  0  2  0  0  0  0  0  0  0  0  0
   50.3419  -31.7634   -0.6223 C   0  0  0  0  0  0  0  0  0  0  0  0
   51.4039  -31.5336   -1.1993 O   0  0  0  0  0  0  0  0  0  0  0  0
   47.9814  -32.6488   -0.4040 C   0  0  0  0  0  0  0  0  0  0  0  0
   46.7151  -33.1601   -1.1012 C   0  0  0  0  0  0  0  0  0  0  0  0
   45.5692  -33.5896   -0.1722 C   0  0  0  0  0  0  0  0  0  0  0  0
   44.2322  -33.6542   -0.8931 C   0  0  0  0  0  0  0  0  0  0  0  0
   44.2209  -34.8150   -1.8078 N   0  0  0  0  0  4  0  0  0  0  0  0
   50.1649  -31.6580    0.7427 N   0  0  0  0  0  0  0  0  0  0  0  0
   50.7986  -30.6014    1.5057 C   0  0  0  0  0  0  0  0  0  0  0  0
   52.2617  -30.9061    1.6992 C   0  0  0  0  0  0  0  0  0  0  0  0
   52.8223  -32.0687    1.1594 C   0  0  0  0  0  0  0  0  0  0  0  0
   54.1735  -32.3560    1.3583 C   0  0  0  0  0  0  0  0  0  0  0  0
   54.9814  -31.4799    2.1000 C   0  0  0  0  0  0  0  0  0  0  0  0
   56.4364  -31.7886    2.2538 C   0  0  0  0  0  0  0  0  0  0  0  0
   56.9988  -32.8309    1.5829 N   0  0  0  0  0  0  0  0  0  0  0  0
   57.1525  -31.0622    3.0477 N   0  0  0  0  0  0  0  0  0  0  0  0
   54.4215  -30.3277    2.6634 C   0  0  0  0  0  0  0  0  0  0  0  0
   53.0639  -30.0473    2.4710 C   0  0  0  0  0  0  0  0  0  0  0  0
   51.0884  -44.0463  -13.6186 H   0  0  0  0  0  0  0  0  0  0  0  0
   44.5887  -41.8136   -8.7314 H   0  0  0  0  0  0  0  0  0  0  0  0
   47.9437  -32.8673  -11.8950 H   0  0  0  0  0  0  0  0  0  0  0  0
   56.5557  -30.3756    3.5123 H   0  0  0  0  0  0  0  0  0  0  0  0
  2  1  1  1
  3  2  1  0
  2  5  1  0
  3  4  2  0
 16  3  1  0
  5  6  1  0
  6  7  2  0
  6  9  1  0
  7  8  1  0
  8 11  2  0
  9 10  2  0
  9 12  1  0
 10 11  1  0
 10 15  1  0
 12 13  2  0
 13 14  1  0
 15 14  2  0
 17 16  1  0
 18 17  1  0
 17 20  1  1
 18 19  2  0
 27 18  1  0
 20 21  1  0
 21 22  1  0
 22 23  1  0
 23 24  1  0
 24 25  2  0
 24 26  1  0
 28 27  1  0
 29 28  1  0
 28 31  1  1
 29 30  2  0
 38 29  1  0
 31 32  1  0
 32 33  1  0
 33 34  1  0
 34 35  1  0
 35 36  2  0
 35 37  1  0
 39 38  1  0
 40 39  1  0
 39 42  1  6
 40 41  2  0
 50 40  1  0
 42 43  1  0
 43 44  1  0
 44 45  1  0
 45 46  1  0
 46 47  1  0
 46 48  2  0
 49 51  2  0
 52 49  1  0
 49 58  1  0
 52 50  1  0
 52 53  1  1
 56 53  1  0
 54 55  1  0
 54 56  1  0
 55 57  1  0
 58 59  1  0
 59 60  1  0
 59 62  1  1
 60 61  2  0
 60 67  1  0
 62 63  1  0
 63 64  1  0
 64 65  1  0
 65 66  1  0
 67 68  1  0
 68 69  1  0
 69 70  2  0
 69 77  1  0
 70 71  1  0
 71 72  2  0
 72 73  1  0
 72 76  1  0
 73 74  1  0
 73 75  2  0
 76 77  2  0
 25 78  1  0
 36 79  1  0
 48 80  1  0
 75 81  1  0
M  CHG  3   1   1  57   1  66   1
M  END
$$$$
