
     RDKit          3D

 81 83  0  0  0  0  0  0  0  0999 V2000
   57.6261  -33.1509   -0.4189 N   0  0  0  0  0  4  0  0  0  0  0  0
   56.1253  -33.2348   -0.6544 C   0  0  2  0  0  0  0  0  0  0  0  0
   55.8148  -32.4555   -1.9438 C   0  0  0  0  0  0  0  0  0  0  0  0
   54.6335  -32.2315   -2.2542 O   0  0  0  0  0  0  0  0  0  0  0  0
   55.3374  -32.6544    0.5389 C   0  0  0  0  0  0  0  0  0  0  0  0
   54.3196  -31.6023    0.1511 C   0  0  0  0  0  0  0  0  0  0  0  0
   54.6159  -30.2634    0.4649 C   0  0  0  0  0  0  0  0  0  0  0  0
   53.7749  -29.2336    0.0589 C   0  0  0  0  0  0  0  0  0  0  0  0
   53.1394  -31.9157   -0.5943 C   0  0  0  0  0  0  0  0  0  0  0  0
   52.2964  -30.8492   -1.0061 C   0  0  0  0  0  0  0  0  0  0  0  0
   52.6230  -29.5282   -0.6736 C   0  0  0  0  0  0  0  0  0  0  0  0
   52.7597  -33.2252   -0.9761 C   0  0  0  0  0  0  0  0  0  0  0  0
   51.6000  -33.4654   -1.7213 C   0  0  0  0  0  0  0  0  0  0  0  0
   50.7894  -32.4095   -2.1028 C   0  0  0  0  0  0  0  0  0  0  0  0
   51.1346  -31.1100   -1.7490 C   0  0  0  0  0  0  0  0  0  0  0  0
   56.8579  -32.0513   -2.7376 N   0  0  0  0  0  0  0  0  0  0  0  0
   56.7045  -32.1307   -4.2021 C   0  0  2  0  0  0  0  0  0  0  0  0
   56.2245  -33.5240   -4.6836 C   0  0  0  0  0  0  0  0  0  0  0  0
   55.9408  -34.4330   -3.9160 O   0  0  0  0  0  0  0  0  0  0  0  0
   57.9947  -31.7047   -4.9246 C   0  0  0  0  0  0  0  0  0  0  0  0
   59.0259  -30.8966   -4.1303 C   0  0  0  0  0  0  0  0  0  0  0  0
   60.4430  -30.8133   -4.6977 C   0  0  0  0  0  0  0  0  0  0  0  0
   60.4925  -29.9658   -5.8579 N   0  0  0  0  0  0  0  0  0  0  0  0
   60.9651  -30.2775   -7.0786 C   0  0  0  0  0  0  0  0  0  0  0  0
   60.2957  -30.2846   -8.1894 N   0  0  0  0  0  0  0  0  0  0  0  0
   62.2719  -30.6105   -7.0066 N   0  0  0  0  0  0  0  0  0  0  0  0
   56.0040  -33.6212   -6.0399 N   0  0  0  0  0  0  0  0  0  0  0  0
   54.6758  -33.5854   -6.6383 C   0  0  2  0  0  0  0  0  0  0  0  0
   54.2898  -35.0522   -6.9581 C   0  0  0  0  0  0  0  0  0  0  0  0
   55.0746  -35.8218   -7.5094 O   0  0  0  0  0  0  0  0  0  0  0  0
   54.6958  -32.7368   -7.9209 C   0  0  0  0  0  0  0  0  0  0  0  0
   55.9842  -32.9446   -8.7308 C   0  0  0  0  0  0  0  0  0  0  0  0
   55.8449  -32.4246  -10.1636 C   0  0  0  0  0  0  0  0  0  0  0  0
   56.7806  -31.3310  -10.3872 N   0  0  0  0  0  0  0  0  0  0  0  0
   56.3819  -30.0392  -10.3213 C   0  0  0  0  0  0  0  0  0  0  0  0
   55.2636  -29.5308  -10.6781 N   0  0  0  0  0  0  0  0  0  0  0  0
   57.3325  -29.2372   -9.8085 N   0  0  0  0  0  0  0  0  0  0  0  0
   53.0323  -35.4509   -6.5570 N   0  0  0  0  0  0  0  0  0  0  0  0
   52.7010  -36.8660   -6.4532 C   0  0  2  0  0  0  0  0  0  0  0  0
   51.5211  -37.1038   -7.4179 C   0  0  0  0  0  0  0  0  0  0  0  0
   51.0468  -36.1785   -8.0800 O   0  0  0  0  0  0  0  0  0  0  0  0
   52.2194  -37.2600   -5.0468 C   0  0  0  0  0  0  0  0  0  0  0  0
   52.5072  -36.2374   -3.9516 C   0  0  0  0  0  0  0  0  0  0  0  0
   52.0414  -36.6436   -2.5487 C   0  0  0  0  0  0  0  0  0  0  0  0
   53.1471  -36.6165   -1.5821 N   0  0  0  0  0  0  0  0  0  0  0  0
   53.4749  -35.4674   -0.9570 C   0  0  0  0  0  0  0  0  0  0  0  0
   54.7558  -35.1018   -1.1414 N   0  0  0  0  0  0  0  0  0  0  0  0
   52.6177  -34.7358   -0.3207 N   0  0  0  0  0  0  0  0  0  0  0  0
   48.7325  -37.7245   -8.2615 C   0  0  0  0  0  0  0  0  0  0  0  0
   50.9682  -38.3614   -7.4057 N   0  0  0  0  0  0  0  0  0  0  0  0
   48.7556  -36.7349   -7.5378 O   0  0  0  0  0  0  0  0  0  0  0  0
   49.9093  -38.7218   -8.3523 C   0  0  1  0  0  0  0  0  0  0  0  0
   49.4240  -40.1772   -8.2150 C   0  0  0  0  0  0  0  0  0  0  0  0
   47.2372  -41.3655   -8.7999 C   0  0  0  0  0  0  0  0  0  0  0  0
   46.6541  -42.3852   -9.7867 C   0  0  0  0  0  0  0  0  0  0  0  0
   48.5039  -40.6714   -9.3419 C   0  0  0  0  0  0  0  0  0  0  0  0
   45.3120  -42.8035   -9.3211 N   0  0  0  0  0  4  0  0  0  0  0  0
   47.6503  -38.0515   -9.0599 N   0  0  0  0  0  0  0  0  0  0  0  0
   46.8971  -36.9812   -9.7216 C   0  0  2  0  0  0  0  0  0  0  0  0
   45.8123  -37.6733  -10.5764 C   0  0  0  0  0  0  0  0  0  0  0  0
   46.1032  -38.3908  -11.5324 O   0  0  0  0  0  0  0  0  0  0  0  0
   47.7886  -36.0929  -10.5998 C   0  0  0  0  0  0  0  0  0  0  0  0
   47.2086  -35.8545  -11.9990 C   0  0  0  0  0  0  0  0  0  0  0  0
   47.7632  -34.6356  -12.7522 C   0  0  0  0  0  0  0  0  0  0  0  0
   46.8344  -34.1683  -13.8615 C   0  0  0  0  0  0  0  0  0  0  0  0
   47.4719  -34.4097  -15.1728 N   0  0  0  0  0  4  0  0  0  0  0  0
   44.5184  -37.3705  -10.2022 N   0  0  0  0  0  0  0  0  0  0  0  0
   43.5536  -38.4126   -9.9138 C   0  0  0  0  0  0  0  0  0  0  0  0
   43.5834  -38.7566   -8.4470 C   0  0  0  0  0  0  0  0  0  0  0  0
   42.7559  -39.7626   -7.9367 C   0  0  0  0  0  0  0  0  0  0  0  0
   42.7731  -40.0639   -6.5740 C   0  0  0  0  0  0  0  0  0  0  0  0
   43.6223  -39.3613   -5.7048 C   0  0  0  0  0  0  0  0  0  0  0  0
   43.6557  -39.7403   -4.2587 C   0  0  0  0  0  0  0  0  0  0  0  0
   43.2118  -40.9607   -3.8513 N   0  0  0  0  0  0  0  0  0  0  0  0
   44.0964  -38.8855   -3.3950 N   0  0  0  0  0  0  0  0  0  0  0  0
   44.4348  -38.3373   -6.2046 C   0  0  0  0  0  0  0  0  0  0  0  0
   44.4080  -38.0304   -7.5698 C   0  0  0  0  0  0  0  0  0  0  0  0
   60.5038  -29.3886   -8.6518 H   0  0  0  0  0  0  0  0  0  0  0  0
   55.3003  -29.2556  -11.6553 H   0  0  0  0  0  0  0  0  0  0  0  0
   52.1384  -35.3626    0.3531 H   0  0  0  0  0  0  0  0  0  0  0  0
   43.3153  -38.5224   -2.8460 H   0  0  0  0  0  0  0  0  0  0  0  0
  2  1  1  1
  3  2  1  0
  2  5  1  0
  3  4  2  0
 16  3  1  0
  5  6  1  0
  6  7  2  0
  6  9  1  0
  7  8  1  0
  8 11  2  0
  9 10  2  0
  9 12  1  0
 10 11  1  0
 10 15  1  0
 12 13  2  0
 13 14  1  0
 15 14  2  0
 17 16  1  0
 18 17  1  0
 17 20  1  6
 18 19  2  0
 27 18  1  0
 20 21  1  0
 21 22  1  0
 22 23  1  0
 23 24  1  0
 24 25  2  0
 24 26  1  0
 28 27  1  0
 29 28  1  0
 28 31  1  6
 29 30  2  0
 38 29  1  0
 31 32  1  0
 32 33  1  0
 33 34  1  0
 34 35  1  0
 35 36  2  0
 35 37  1  0
 39 38  1  0
 40 39  1  0
 39 42  1  1
 40 41  2  0
 50 40  1  0
 42 43  1  0
 43 44  1  0
 44 45  1  0
 45 46  1  0
 46 47  1  0
 46 48  2  0
 49 51  2  0
 52 49  1  0
 49 58  1  0
 52 50  1  0
 52 53  1  1
 56 53  1  0
 54 55  1  0
 54 56  1  0
 55 57  1  0
 58 59  1  0
 59 60  1  0
 59 62  1  6
 60 61  2  0
 60 67  1  0
 62 63  1  0
 63 64  1  0
 64 65  1  0
 65 66  1  0
 67 68  1  0
 68 69  1  0
 69 70  2  0
 69 77  1  0
 70 71  1  0
 71 72  2  0
 72 73  1  0
 72 76  1  0
 73 74  1  0
 73 75  2  0
 76 77  2  0
 25 78  1  0
 36 79  1  0
 48 80  1  0
 75 81  1  0
M  CHG  3   1   1  57   1  66   1
M  END
$$$$
