
     RDKit          3D

 81 83  0  0  0  0  0  0  0  0999 V2000
   44.5396  -36.9836  -14.3993 N   0  0  0  0  0  4  0  0  0  0  0  0
   45.8477  -36.3104  -14.0114 C   0  0  2  0  0  0  0  0  0  0  0  0
   45.8671  -36.1854  -12.4784 C   0  0  0  0  0  0  0  0  0  0  0  0
   44.8929  -35.6855  -11.8926 O   0  0  0  0  0  0  0  0  0  0  0  0
   45.9828  -34.9237  -14.6753 C   0  0  0  0  0  0  0  0  0  0  0  0
   47.2358  -34.1711  -14.2790 C   0  0  0  0  0  0  0  0  0  0  0  0
   47.4816  -32.9385  -14.9108 C   0  0  0  0  0  0  0  0  0  0  0  0
   48.5607  -32.1474  -14.5336 C   0  0  0  0  0  0  0  0  0  0  0  0
   48.1031  -34.6229  -13.2349 C   0  0  0  0  0  0  0  0  0  0  0  0
   49.1961  -33.7973  -12.8590 C   0  0  0  0  0  0  0  0  0  0  0  0
   49.4106  -32.5768  -13.5121 C   0  0  0  0  0  0  0  0  0  0  0  0
   47.9344  -35.8363  -12.5250 C   0  0  0  0  0  0  0  0  0  0  0  0
   48.8088  -36.2149  -11.5002 C   0  0  0  0  0  0  0  0  0  0  0  0
   49.8725  -35.3970  -11.1585 C   0  0  0  0  0  0  0  0  0  0  0  0
   50.0655  -34.1960  -11.8318 C   0  0  0  0  0  0  0  0  0  0  0  0
   46.9806  -36.6056  -11.7963 N   0  0  0  0  0  0  0  0  0  0  0  0
   46.9862  -36.5112  -10.3247 C   0  0  2  0  0  0  0  0  0  0  0  0
   48.2958  -35.8994   -9.7645 C   0  0  0  0  0  0  0  0  0  0  0  0
   49.4070  -36.3060  -10.0742 O   0  0  0  0  0  0  0  0  0  0  0  0
   46.6838  -37.8731   -9.6748 C   0  0  0  0  0  0  0  0  0  0  0  0
   47.5857  -38.3329   -8.5248 C   0  0  0  0  0  0  0  0  0  0  0  0
   46.9042  -38.9070   -7.2826 C   0  0  0  0  0  0  0  0  0  0  0  0
   47.8594  -39.1902   -6.2462 N   0  0  0  0  0  0  0  0  0  0  0  0
   47.7105  -38.9994   -4.9226 C   0  0  0  0  0  0  0  0  0  0  0  0
   48.2369  -38.0498   -4.2132 N   0  0  0  0  0  0  0  0  0  0  0  0
   46.9259  -39.9628   -4.3934 N   0  0  0  0  0  0  0  0  0  0  0  0
   48.1222  -34.7680   -8.9980 N   0  0  0  0  0  0  0  0  0  0  0  0
   48.9434  -34.4568   -7.8350 C   0  0  2  0  0  0  0  0  0  0  0  0
   50.2738  -35.2336   -8.0062 C   0  0  0  0  0  0  0  0  0  0  0  0
   50.2926  -36.4446   -8.2191 O   0  0  0  0  0  0  0  0  0  0  0  0
   48.2229  -34.8901   -6.5472 C   0  0  0  0  0  0  0  0  0  0  0  0
   48.2976  -33.8141   -5.4536 C   0  0  0  0  0  0  0  0  0  0  0  0
   47.6457  -34.2822   -4.1503 C   0  0  0  0  0  0  0  0  0  0  0  0
   47.9914  -33.3710   -3.0680 N   0  0  0  0  0  0  0  0  0  0  0  0
   49.0189  -33.6346   -2.2272 C   0  0  0  0  0  0  0  0  0  0  0  0
   49.7916  -34.6540   -2.2077 N   0  0  0  0  0  0  0  0  0  0  0  0
   49.1949  -32.6614   -1.3154 N   0  0  0  0  0  0  0  0  0  0  0  0
   51.4285  -34.4830   -7.9413 N   0  0  0  0  0  0  0  0  0  0  0  0
   52.7184  -35.0769   -8.2671 C   0  0  2  0  0  0  0  0  0  0  0  0
   53.1229  -35.9257   -7.0444 C   0  0  0  0  0  0  0  0  0  0  0  0
   52.5431  -35.7980   -5.9640 O   0  0  0  0  0  0  0  0  0  0  0  0
   53.8211  -34.0241   -8.4694 C   0  0  0  0  0  0  0  0  0  0  0  0
   54.0427  -33.5848   -9.9136 C   0  0  0  0  0  0  0  0  0  0  0  0
   53.9357  -32.0746  -10.1541 C   0  0  0  0  0  0  0  0  0  0  0  0
   54.9423  -31.6069  -11.1162 N   0  0  0  0  0  0  0  0  0  0  0  0
   56.0554  -32.3340  -11.3422 C   0  0  0  0  0  0  0  0  0  0  0  0
   55.9328  -33.2011  -12.3629 N   0  0  0  0  0  0  0  0  0  0  0  0
   57.1656  -32.1497  -10.7032 N   0  0  0  0  0  0  0  0  0  0  0  0
   55.5175  -36.7511   -5.0876 C   0  0  0  0  0  0  0  0  0  0  0  0
   54.2239  -36.7325   -7.2001 N   0  0  0  0  0  0  0  0  0  0  0  0
   56.6225  -36.2900   -5.3519 O   0  0  0  0  0  0  0  0  0  0  0  0
   54.6927  -37.5783   -6.0993 C   0  0  1  0  0  0  0  0  0  0  0  0
   55.4633  -38.8288   -6.5629 C   0  0  0  0  0  0  0  0  0  0  0  0
   53.6950  -40.6521   -6.2722 C   0  0  0  0  0  0  0  0  0  0  0  0
   53.3493  -42.0058   -5.6384 C   0  0  0  0  0  0  0  0  0  0  0  0
   55.0854  -40.1353   -5.8481 C   0  0  0  0  0  0  0  0  0  0  0  0
   51.9611  -42.3740   -5.9993 N   0  0  0  0  0  4  0  0  0  0  0  0
   54.9042  -36.5857   -3.8579 N   0  0  0  0  0  0  0  0  0  0  0  0
   55.6378  -35.9258   -2.7730 C   0  0  2  0  0  0  0  0  0  0  0  0
   54.6828  -35.8867   -1.5594 C   0  0  0  0  0  0  0  0  0  0  0  0
   53.4660  -35.7698   -1.6982 O   0  0  0  0  0  0  0  0  0  0  0  0
   56.0898  -34.5081   -3.1479 C   0  0  0  0  0  0  0  0  0  0  0  0
   54.9267  -33.5901   -3.5421 C   0  0  0  0  0  0  0  0  0  0  0  0
   54.0189  -33.1315   -2.3905 C   0  0  0  0  0  0  0  0  0  0  0  0
   53.0421  -32.0481   -2.8191 C   0  0  0  0  0  0  0  0  0  0  0  0
   53.7856  -30.8099   -3.1327 N   0  0  0  0  0  4  0  0  0  0  0  0
   55.3199  -35.9406   -0.3359 N   0  0  0  0  0  0  0  0  0  0  0  0
   54.9543  -35.0466    0.7444 C   0  0  0  0  0  0  0  0  0  0  0  0
   53.6513  -35.4839    1.3623 C   0  0  0  0  0  0  0  0  0  0  0  0
   52.4969  -34.7088    1.2080 C   0  0  0  0  0  0  0  0  0  0  0  0
   51.2972  -35.1082    1.7988 C   0  0  0  0  0  0  0  0  0  0  0  0
   51.2387  -36.2918    2.5512 C   0  0  0  0  0  0  0  0  0  0  0  0
   49.9282  -36.7202    3.1300 C   0  0  0  0  0  0  0  0  0  0  0  0
   48.8519  -36.9356    2.3251 N   0  0  0  0  0  0  0  0  0  0  0  0
   49.8245  -36.8670    4.4100 N   0  0  0  0  0  0  0  0  0  0  0  0
   52.3954  -37.0590    2.7299 C   0  0  0  0  0  0  0  0  0  0  0  0
   53.5993  -36.6508    2.1448 C   0  0  0  0  0  0  0  0  0  0  0  0
   48.2712  -37.2234   -4.8263 H   0  0  0  0  0  0  0  0  0  0  0  0
   50.7015  -34.3961   -1.8368 H   0  0  0  0  0  0  0  0  0  0  0  0
   57.3758  -31.1355  -10.7646 H   0  0  0  0  0  0  0  0  0  0  0  0
   50.7518  -36.8138    4.8352 H   0  0  0  0  0  0  0  0  0  0  0  0
  2  1  1  1
  3  2  1  0
  2  5  1  0
  3  4  2  0
 16  3  1  0
  5  6  1  0
  6  7  2  0
  6  9  1  0
  7  8  1  0
  8 11  2  0
  9 10  2  0
  9 12  1  0
 10 11  1  0
 10 15  1  0
 12 13  2  0
 13 14  1  0
 15 14  2  0
 17 16  1  0
 18 17  1  0
 17 20  1  1
 18 19  2  0
 27 18  1  0
 20 21  1  0
 21 22  1  0
 22 23  1  0
 23 24  1  0
 24 25  2  0
 24 26  1  0
 28 27  1  0
 29 28  1  0
 28 31  1  1
 29 30  2  0
 38 29  1  0
 31 32  1  0
 32 33  1  0
 33 34  1  0
 34 35  1  0
 35 36  2  0
 35 37  1  0
 39 38  1  0
 40 39  1  0
 39 42  1  1
 40 41  2  0
 50 40  1  0
 42 43  1  0
 43 44  1  0
 44 45  1  0
 45 46  1  0
 46 47  1  0
 46 48  2  0
 49 51  2  0
 52 49  1  0
 49 58  1  0
 52 50  1  0
 52 53  1  6
 56 53  1  0
 54 55  1  0
 54 56  1  0
 55 57  1  0
 58 59  1  0
 59 60  1  0
 59 62  1  6
 60 61  2  0
 60 67  1  0
 62 63  1  0
 63 64  1  0
 64 65  1  0
 65 66  1  0
 67 68  1  0
 68 69  1  0
 69 70  2  0
 69 77  1  0
 70 71  1  0
 71 72  2  0
 72 73  1  0
 72 76  1  0
 73 74  1  0
 73 75  2  0
 76 77  2  0
 25 78  1  0
 36 79  1  0
 48 80  1  0
 75 81  1  0
M  CHG  3   1   1  57   1  66   1
M  END
$$$$
