
     RDKit          3D

 81 83  0  0  0  0  0  0  0  0999 V2000
   58.3424  -32.0207   -3.8322 N   0  0  0  0  0  4  0  0  0  0  0  0
   58.5685  -33.5185   -3.9747 C   0  0  2  0  0  0  0  0  0  0  0  0
   57.2827  -34.2266   -3.5150 C   0  0  0  0  0  0  0  0  0  0  0  0
   57.2568  -35.4663   -3.4488 O   0  0  0  0  0  0  0  0  0  0  0  0
   59.7789  -33.9847   -3.1383 C   0  0  0  0  0  0  0  0  0  0  0  0
   59.6673  -33.6639   -1.6624 C   0  0  0  0  0  0  0  0  0  0  0  0
   59.2172  -34.6856   -0.8068 C   0  0  0  0  0  0  0  0  0  0  0  0
   59.1770  -34.4959    0.5698 C   0  0  0  0  0  0  0  0  0  0  0  0
   60.0900  -32.4109   -1.1165 C   0  0  0  0  0  0  0  0  0  0  0  0
   60.0481  -32.2387    0.2928 C   0  0  0  0  0  0  0  0  0  0  0  0
   59.5921  -33.2783    1.1135 C   0  0  0  0  0  0  0  0  0  0  0  0
   60.5753  -31.3266   -1.8869 C   0  0  0  0  0  0  0  0  0  0  0  0
   60.9905  -30.1306   -1.2910 C   0  0  0  0  0  0  0  0  0  0  0  0
   60.9313  -29.9837    0.0846 C   0  0  0  0  0  0  0  0  0  0  0  0
   60.4643  -31.0300    0.8722 C   0  0  0  0  0  0  0  0  0  0  0  0
   56.1813  -33.4655   -3.2162 N   0  0  0  0  0  0  0  0  0  0  0  0
   54.9034  -34.1480   -2.9405 C   0  0  2  0  0  0  0  0  0  0  0  0
   53.9804  -34.2253   -4.1837 C   0  0  0  0  0  0  0  0  0  0  0  0
   52.9394  -34.8672   -4.2018 O   0  0  0  0  0  0  0  0  0  0  0  0
   54.1751  -33.5116   -1.7435 C   0  0  0  0  0  0  0  0  0  0  0  0
   54.7436  -33.7644   -0.3435 C   0  0  0  0  0  0  0  0  0  0  0  0
   53.9981  -33.1483    0.8405 C   0  0  0  0  0  0  0  0  0  0  0  0
   53.3690  -34.1598    1.6455 N   0  0  0  0  0  0  0  0  0  0  0  0
   53.9148  -34.8522    2.6620 C   0  0  0  0  0  0  0  0  0  0  0  0
   55.1404  -34.7778    3.0796 N   0  0  0  0  0  0  0  0  0  0  0  0
   53.0007  -35.6807    3.2116 N   0  0  0  0  0  0  0  0  0  0  0  0
   54.3459  -33.4018   -5.2256 N   0  0  0  0  0  0  0  0  0  0  0  0
   53.7851  -33.5120   -6.5662 C   0  0  2  0  0  0  0  0  0  0  0  0
   52.7721  -34.6848   -6.5319 C   0  0  0  0  0  0  0  0  0  0  0  0
   53.1100  -35.8387   -6.7898 O   0  0  0  0  0  0  0  0  0  0  0  0
   54.9024  -33.7886   -7.5863 C   0  0  0  0  0  0  0  0  0  0  0  0
   55.4931  -32.4926   -8.1614 C   0  0  0  0  0  0  0  0  0  0  0  0
   54.9690  -32.2055   -9.5705 C   0  0  0  0  0  0  0  0  0  0  0  0
   55.4944  -30.9326  -10.0450 N   0  0  0  0  0  0  0  0  0  0  0  0
   56.6303  -30.8696  -10.7784 C   0  0  0  0  0  0  0  0  0  0  0  0
   57.3050  -29.8366  -11.1160 N   0  0  0  0  0  0  0  0  0  0  0  0
   57.0489  -32.0845  -11.1764 N   0  0  0  0  0  0  0  0  0  0  0  0
   51.4832  -34.3639   -6.1620 N   0  0  0  0  0  0  0  0  0  0  0  0
   50.3908  -35.3003   -6.3918 C   0  0  2  0  0  0  0  0  0  0  0  0
   49.6350  -34.7839   -7.6332 C   0  0  0  0  0  0  0  0  0  0  0  0
   49.2565  -33.6128   -7.7037 O   0  0  0  0  0  0  0  0  0  0  0  0
   49.3825  -35.3307   -5.2309 C   0  0  0  0  0  0  0  0  0  0  0  0
   48.7771  -33.9799   -4.8609 C   0  0  0  0  0  0  0  0  0  0  0  0
   49.1353  -33.4725   -3.4594 C   0  0  0  0  0  0  0  0  0  0  0  0
   48.8268  -34.4707   -2.4269 N   0  0  0  0  0  0  0  0  0  0  0  0
   49.0025  -34.1757   -1.1228 C   0  0  0  0  0  0  0  0  0  0  0  0
   49.3680  -32.8999   -0.9050 N   0  0  0  0  0  0  0  0  0  0  0  0
   48.7514  -35.0102   -0.1660 N   0  0  0  0  0  0  0  0  0  0  0  0
   46.8469  -35.7331   -8.3673 C   0  0  0  0  0  0  0  0  0  0  0  0
   49.3144  -35.7213   -8.5851 N   0  0  0  0  0  0  0  0  0  0  0  0
   46.7919  -35.1244   -7.3043 O   0  0  0  0  0  0  0  0  0  0  0  0
   48.0540  -35.6329   -9.3269 C   0  0  1  0  0  0  0  0  0  0  0  0
   47.9406  -36.6478  -10.4800 C   0  0  0  0  0  0  0  0  0  0  0  0
   48.7445  -35.2964  -12.4958 C   0  0  0  0  0  0  0  0  0  0  0  0
   48.3399  -33.9156  -13.0281 C   0  0  0  0  0  0  0  0  0  0  0  0
   47.5665  -36.0510  -11.8455 C   0  0  0  0  0  0  0  0  0  0  0  0
   49.4110  -33.3991  -13.9105 N   0  0  0  0  0  4  0  0  0  0  0  0
   45.8412  -36.5755   -8.8085 N   0  0  0  0  0  0  0  0  0  0  0  0
   46.1630  -37.6357   -9.7694 C   0  0  2  0  0  0  0  0  0  0  0  0
   44.8460  -38.3969  -10.0384 C   0  0  0  0  0  0  0  0  0  0  0  0
   44.2064  -38.9233   -9.1288 O   0  0  0  0  0  0  0  0  0  0  0  0
   47.2412  -38.5941   -9.2462 C   0  0  0  0  0  0  0  0  0  0  0  0
   46.6610  -39.8228   -8.5359 C   0  0  0  0  0  0  0  0  0  0  0  0
   47.2702  -40.1499   -7.1639 C   0  0  0  0  0  0  0  0  0  0  0  0
   47.7693  -38.9091   -6.4410 C   0  0  0  0  0  0  0  0  0  0  0  0
   48.3660  -39.2992   -5.1464 N   0  0  0  0  0  4  0  0  0  0  0  0
   44.4972  -38.4707  -11.3721 N   0  0  0  0  0  0  0  0  0  0  0  0
   43.1264  -38.7016  -11.7813 C   0  0  0  0  0  0  0  0  0  0  0  0
   43.0474  -38.8374  -13.2800 C   0  0  0  0  0  0  0  0  0  0  0  0
   41.8135  -39.0254  -13.9119 C   0  0  0  0  0  0  0  0  0  0  0  0
   41.7479  -39.1703  -15.2984 C   0  0  0  0  0  0  0  0  0  0  0  0
   42.9195  -39.1269  -16.0704 C   0  0  0  0  0  0  0  0  0  0  0  0
   42.8130  -39.2347  -17.5581 C   0  0  0  0  0  0  0  0  0  0  0  0
   43.9317  -39.2683  -18.3327 N   0  0  0  0  0  0  0  0  0  0  0  0
   41.6417  -39.2781  -18.1028 N   0  0  0  0  0  0  0  0  0  0  0  0
   44.1594  -38.9636  -15.4425 C   0  0  0  0  0  0  0  0  0  0  0  0
   44.2231  -38.8288  -14.0510 C   0  0  0  0  0  0  0  0  0  0  0  0
   55.7224  -35.1575    2.3200 H   0  0  0  0  0  0  0  0  0  0  0  0
   57.2646  -29.1367  -10.3807 H   0  0  0  0  0  0  0  0  0  0  0  0
   48.7821  -35.9583   -0.5866 H   0  0  0  0  0  0  0  0  0  0  0  0
   40.9258  -39.2265  -17.3758 H   0  0  0  0  0  0  0  0  0  0  0  0
  2  1  1  1
  3  2  1  0
  2  5  1  0
  3  4  2  0
 16  3  1  0
  5  6  1  0
  6  7  2  0
  6  9  1  0
  7  8  1  0
  8 11  2  0
  9 10  2  0
  9 12  1  0
 10 11  1  0
 10 15  1  0
 12 13  2  0
 13 14  1  0
 15 14  2  0
 17 16  1  0
 18 17  1  0
 17 20  1  1
 18 19  2  0
 27 18  1  0
 20 21  1  0
 21 22  1  0
 22 23  1  0
 23 24  1  0
 24 25  2  0
 24 26  1  0
 28 27  1  0
 29 28  1  0
 28 31  1  6
 29 30  2  0
 38 29  1  0
 31 32  1  0
 32 33  1  0
 33 34  1  0
 34 35  1  0
 35 36  2  0
 35 37  1  0
 39 38  1  0
 40 39  1  0
 39 42  1  1
 40 41  2  0
 50 40  1  0
 42 43  1  0
 43 44  1  0
 44 45  1  0
 45 46  1  0
 46 47  1  0
 46 48  2  0
 49 51  2  0
 52 49  1  0
 49 58  1  0
 52 50  1  0
 52 53  1  6
 56 53  1  0
 54 55  1  0
 54 56  1  0
 55 57  1  0
 58 59  1  0
 59 60  1  0
 59 62  1  1
 60 61  2  0
 60 67  1  0
 62 63  1  0
 63 64  1  0
 64 65  1  0
 65 66  1  0
 67 68  1  0
 68 69  1  0
 69 70  2  0
 69 77  1  0
 70 71  1  0
 71 72  2  0
 72 73  1  0
 72 76  1  0
 73 74  1  0
 73 75  2  0
 76 77  2  0
 25 78  1  0
 36 79  1  0
 48 80  1  0
 75 81  1  0
M  CHG  3   1   1  57   1  66   1
M  END
$$$$
