
     RDKit          3D

 81 83  0  0  0  0  0  0  0  0999 V2000
   55.4591  -33.4489    0.7206 N   0  0  0  0  0  4  0  0  0  0  0  0
   55.7999  -32.1060    0.0918 C   0  0  2  0  0  0  0  0  0  0  0  0
   55.4453  -32.1913   -1.4025 C   0  0  0  0  0  0  0  0  0  0  0  0
   56.0873  -31.5161   -2.2235 O   0  0  0  0  0  0  0  0  0  0  0  0
   57.2921  -31.7609    0.2813 C   0  0  0  0  0  0  0  0  0  0  0  0
   58.2156  -32.4700   -0.6871 C   0  0  0  0  0  0  0  0  0  0  0  0
   58.7153  -33.7287   -0.3064 C   0  0  0  0  0  0  0  0  0  0  0  0
   59.4928  -34.4803   -1.1799 C   0  0  0  0  0  0  0  0  0  0  0  0
   58.5077  -31.9502   -1.9875 C   0  0  0  0  0  0  0  0  0  0  0  0
   59.2979  -32.7361   -2.8681 C   0  0  0  0  0  0  0  0  0  0  0  0
   59.7797  -33.9844   -2.4535 C   0  0  0  0  0  0  0  0  0  0  0  0
   58.0403  -30.7054   -2.4739 C   0  0  0  0  0  0  0  0  0  0  0  0
   58.3470  -30.2595   -3.7644 C   0  0  0  0  0  0  0  0  0  0  0  0
   59.1271  -31.0400   -4.6008 C   0  0  0  0  0  0  0  0  0  0  0  0
   59.5993  -32.2702   -4.1573 C   0  0  0  0  0  0  0  0  0  0  0  0
   54.4023  -32.9945   -1.7882 N   0  0  0  0  0  0  0  0  0  0  0  0
   54.1240  -33.1498   -3.2281 C   0  0  2  0  0  0  0  0  0  0  0  0
   52.7890  -33.8865   -3.5083 C   0  0  0  0  0  0  0  0  0  0  0  0
   52.2446  -34.6138   -2.6894 O   0  0  0  0  0  0  0  0  0  0  0  0
   55.2986  -33.8273   -3.9559 C   0  0  0  0  0  0  0  0  0  0  0  0
   55.7058  -35.2331   -3.5029 C   0  0  0  0  0  0  0  0  0  0  0  0
   56.7804  -35.9516   -4.3191 C   0  0  0  0  0  0  0  0  0  0  0  0
   57.4754  -36.9271   -3.5241 N   0  0  0  0  0  0  0  0  0  0  0  0
   57.3240  -38.2638   -3.5535 C   0  0  0  0  0  0  0  0  0  0  0  0
   57.9084  -39.1264   -2.7812 N   0  0  0  0  0  0  0  0  0  0  0  0
   56.4655  -38.6189   -4.5337 N   0  0  0  0  0  0  0  0  0  0  0  0
   52.1840  -33.5508   -4.6995 N   0  0  0  0  0  0  0  0  0  0  0  0
   50.7767  -33.8044   -4.9805 C   0  0  2  0  0  0  0  0  0  0  0  0
   50.6481  -33.9560   -6.5178 C   0  0  0  0  0  0  0  0  0  0  0  0
   51.2342  -33.2026   -7.2931 O   0  0  0  0  0  0  0  0  0  0  0  0
   49.9169  -32.6332   -4.4761 C   0  0  0  0  0  0  0  0  0  0  0  0
   48.6994  -33.1145   -3.6730 C   0  0  0  0  0  0  0  0  0  0  0  0
   49.0667  -33.4372   -2.2226 C   0  0  0  0  0  0  0  0  0  0  0  0
   47.8787  -33.8567   -1.4919 N   0  0  0  0  0  0  0  0  0  0  0  0
   47.9421  -34.2029   -0.1848 C   0  0  0  0  0  0  0  0  0  0  0  0
   47.6430  -33.5002    0.8414 N   0  0  0  0  0  0  0  0  0  0  0  0
   48.3891  -35.4597   -0.0108 N   0  0  0  0  0  0  0  0  0  0  0  0
   49.8691  -35.0033   -6.9621 N   0  0  0  0  0  0  0  0  0  0  0  0
   50.4338  -36.0345   -7.8227 C   0  0  2  0  0  0  0  0  0  0  0  0
   49.2448  -36.6658   -8.5755 C   0  0  0  0  0  0  0  0  0  0  0  0
   49.2304  -37.8691   -8.8432 O   0  0  0  0  0  0  0  0  0  0  0  0
   51.1139  -37.1621   -7.0283 C   0  0  0  0  0  0  0  0  0  0  0  0
   51.7624  -38.2533   -7.8750 C   0  0  0  0  0  0  0  0  0  0  0  0
   53.2066  -38.5965   -7.4924 C   0  0  0  0  0  0  0  0  0  0  0  0
   53.3347  -39.9946   -7.0606 N   0  0  0  0  0  0  0  0  0  0  0  0
   52.8300  -40.3879   -5.8735 C   0  0  0  0  0  0  0  0  0  0  0  0
   53.7720  -40.6920   -4.9632 N   0  0  0  0  0  0  0  0  0  0  0  0
   51.5643  -40.3820   -5.6031 N   0  0  0  0  0  0  0  0  0  0  0  0
   47.0812  -36.9619  -10.8535 C   0  0  0  0  0  0  0  0  0  0  0  0
   48.2769  -35.7991   -9.0220 N   0  0  0  0  0  0  0  0  0  0  0  0
   46.5506  -37.0640  -11.9543 O   0  0  0  0  0  0  0  0  0  0  0  0
   47.9279  -35.7360  -10.4437 C   0  0  1  0  0  0  0  0  0  0  0  0
   49.1430  -35.5567  -11.3731 C   0  0  0  0  0  0  0  0  0  0  0  0
   49.2231  -34.1863  -13.5299 C   0  0  0  0  0  0  0  0  0  0  0  0
   50.1078  -33.1172  -14.1841 C   0  0  0  0  0  0  0  0  0  0  0  0
   49.2975  -34.1577  -11.9892 C   0  0  0  0  0  0  0  0  0  0  0  0
   51.3675  -33.7424  -14.6480 N   0  0  0  0  0  4  0  0  0  0  0  0
   46.9674  -37.9267   -9.8676 N   0  0  0  0  0  0  0  0  0  0  0  0
   46.0430  -39.0481  -10.0641 C   0  0  2  0  0  0  0  0  0  0  0  0
   44.8018  -38.7498   -9.1941 C   0  0  0  0  0  0  0  0  0  0  0  0
   44.7407  -37.7528   -8.4759 O   0  0  0  0  0  0  0  0  0  0  0  0
   46.6636  -40.3957   -9.6719 C   0  0  0  0  0  0  0  0  0  0  0  0
   48.0606  -40.2581   -9.0550 C   0  0  0  0  0  0  0  0  0  0  0  0
   49.2385  -40.4179  -10.0284 C   0  0  0  0  0  0  0  0  0  0  0  0
   50.5842  -40.3669   -9.3227 C   0  0  0  0  0  0  0  0  0  0  0  0
   50.4547  -40.9509   -7.9713 N   0  0  0  0  0  4  0  0  0  0  0  0
   43.8180  -39.7159   -9.2614 N   0  0  0  0  0  0  0  0  0  0  0  0
   42.5346  -39.5313   -8.6141 C   0  0  0  0  0  0  0  0  0  0  0  0
   42.6533  -39.8066   -7.1373 C   0  0  0  0  0  0  0  0  0  0  0  0
   43.8825  -40.1751   -6.5802 C   0  0  0  0  0  0  0  0  0  0  0  0
   43.9828  -40.4482   -5.2152 C   0  0  0  0  0  0  0  0  0  0  0  0
   42.8513  -40.3536   -4.3899 C   0  0  0  0  0  0  0  0  0  0  0  0
   42.9998  -40.6030   -2.9230 C   0  0  0  0  0  0  0  0  0  0  0  0
   44.2305  -40.7903   -2.3726 N   0  0  0  0  0  0  0  0  0  0  0  0
   41.9406  -40.6563   -2.1842 N   0  0  0  0  0  0  0  0  0  0  0  0
   41.6136  -40.0093   -4.9448 C   0  0  0  0  0  0  0  0  0  0  0  0
   41.5140  -39.7459   -6.3157 C   0  0  0  0  0  0  0  0  0  0  0  0
   58.2196  -38.6003   -1.9528 H   0  0  0  0  0  0  0  0  0  0  0  0
   46.7927  -32.9721    0.6681 H   0  0  0  0  0  0  0  0  0  0  0  0
   51.1124  -39.7858   -6.3221 H   0  0  0  0  0  0  0  0  0  0  0  0
   41.1617  -41.0265   -2.7317 H   0  0  0  0  0  0  0  0  0  0  0  0
  2  1  1  1
  3  2  1  0
  2  5  1  0
  3  4  2  0
 16  3  1  0
  5  6  1  0
  6  7  2  0
  6  9  1  0
  7  8  1  0
  8 11  2  0
  9 10  2  0
  9 12  1  0
 10 11  1  0
 10 15  1  0
 12 13  2  0
 13 14  1  0
 15 14  2  0
 17 16  1  0
 18 17  1  0
 17 20  1  1
 18 19  2  0
 27 18  1  0
 20 21  1  0
 21 22  1  0
 22 23  1  0
 23 24  1  0
 24 25  2  0
 24 26  1  0
 28 27  1  0
 29 28  1  0
 28 31  1  6
 29 30  2  0
 38 29  1  0
 31 32  1  0
 32 33  1  0
 33 34  1  0
 34 35  1  0
 35 36  2  0
 35 37  1  0
 39 38  1  0
 40 39  1  0
 39 42  1  1
 40 41  2  0
 50 40  1  0
 42 43  1  0
 43 44  1  0
 44 45  1  0
 45 46  1  0
 46 47  1  0
 46 48  2  0
 49 51  2  0
 52 49  1  0
 49 58  1  0
 52 50  1  0
 52 53  1  6
 56 53  1  0
 54 55  1  0
 54 56  1  0
 55 57  1  0
 58 59  1  0
 59 60  1  0
 59 62  1  1
 60 61  2  0
 60 67  1  0
 62 63  1  0
 63 64  1  0
 64 65  1  0
 65 66  1  0
 67 68  1  0
 68 69  1  0
 69 70  2  0
 69 77  1  0
 70 71  1  0
 71 72  2  0
 72 73  1  0
 72 76  1  0
 73 74  1  0
 73 75  2  0
 76 77  2  0
 25 78  1  0
 36 79  1  0
 48 80  1  0
 75 81  1  0
M  CHG  3   1   1  57   1  66   1
M  END
$$$$
