
     RDKit          3D

 72 71  0  0  0  0  0  0  0  0999 V2000
   18.9275   20.8478   18.4497 N   0  0  0  0  0  4  0  0  0  0  0  0
   19.5994   20.9407   17.0926 C   0  0  2  0  0  0  0  0  0  0  0  0
   20.5546   19.7327   16.8884 C   0  0  0  0  0  0  0  0  0  0  0  0
   20.9250   19.0192   17.8184 O   0  0  0  0  0  0  0  0  0  0  0  0
   20.3574   22.2895   17.0460 C   0  0  0  0  0  0  0  0  0  0  0  0
   21.0716   22.5531   15.7071 C   0  0  0  0  0  0  0  0  0  0  0  0
   20.2933   23.4193   14.7023 C   0  0  0  0  0  0  0  0  0  0  0  0
   19.3297   24.4148   15.3517 C   0  0  0  0  0  0  0  0  0  0  0  0
   18.5611   25.1438   14.3199 N   0  0  0  0  0  4  0  0  0  0  0  0
   20.9405   19.5032   15.5849 N   0  0  0  0  0  0  0  0  0  0  0  0
   21.7578   18.3521   15.1997 C   0  0  2  0  0  0  0  0  0  0  0  0
   21.1107   17.0460   15.7321 C   0  0  0  0  0  0  0  0  0  0  0  0
   21.5847   16.4022   16.6747 O   0  0  0  0  0  0  0  0  0  0  0  0
   23.2537   18.4862   15.5525 C   0  0  0  0  0  0  0  0  0  0  0  0
   23.8928   19.8655   15.3344 C   0  0  0  0  0  0  0  0  0  0  0  0
   22.9016   20.9930   15.0930 C   0  0  0  0  0  0  0  0  0  0  0  0
   22.6519   21.8692   15.9161 O   0  0  0  0  0  0  0  0  0  0  0  0
   22.3780   21.0321   13.8340 N   0  0  0  0  0  0  0  0  0  0  0  0
   19.9329   16.6887   15.1295 N   0  0  0  0  0  0  0  0  0  0  0  0
   19.3490   17.4363   14.0160 C   0  0  2  0  0  0  0  0  0  0  0  0
   18.0169   16.7221   13.6670 C   0  0  0  0  0  0  0  0  0  0  0  0
   17.2949   17.1360   12.7590 O   0  0  0  0  0  0  0  0  0  0  0  0
   20.2856   17.5297   12.7893 C   0  0  2  0  0  0  0  0  0  0  0  0
   21.2824   16.5135   12.8334 O   0  0  0  0  0  0  0  0  0  0  0  0
   20.9686   18.8838   12.6403 C   0  0  0  0  0  0  0  0  0  0  0  0
   17.7552   15.5704   14.3707 N   0  0  0  0  0  0  0  0  0  0  0  0
   16.3971   15.1320   14.7434 C   0  0  2  0  0  0  0  0  0  0  0  0
   15.8076   14.5986   13.4280 C   0  0  0  0  0  0  0  0  0  0  0  0
   15.9171   15.1896   12.3540 O   0  0  0  0  0  0  0  0  0  0  0  0
   15.4899   16.1882   15.3546 C   0  0  0  0  0  0  0  0  0  0  0  0
   14.9684   13.5127   13.5637 N   0  0  0  0  0  0  0  0  0  0  0  0
   14.3071   12.8775   12.4166 C   0  0  2  0  0  0  0  0  0  0  0  0
   13.2297   11.8754   12.9215 C   0  0  0  0  0  0  0  0  0  0  0  0
   13.1594   11.4622   14.0747 O   0  0  0  0  0  0  0  0  0  0  0  0
   15.3763   12.1906   11.5592 C   0  0  0  0  0  0  0  0  0  0  0  0
   14.8141   11.2614   10.4859 C   0  0  0  0  0  0  0  0  0  0  0  0
   15.8914   10.4105    9.8061 C   0  0  0  0  0  0  0  0  0  0  0  0
   15.8342   10.4425    8.3432 N   0  0  0  0  0  0  0  0  0  0  0  0
   16.3407   11.4776    7.6285 C   0  0  0  0  0  0  0  0  0  0  0  0
   17.5941   11.7157    7.4749 N   0  0  0  0  0  0  0  0  0  0  0  0
   15.3784   12.2770    7.1237 N   0  0  0  0  0  0  0  0  0  0  0  0
   12.3566   11.4148   11.9506 N   0  0  0  0  0  0  0  0  0  0  0  0
   10.9041   11.3734   12.1348 C   0  0  1  0  0  0  0  0  0  0  0  0
   10.2443   12.7545   12.3328 C   0  0  0  0  0  0  0  0  0  0  0  0
    8.7926   12.9055   11.8380 C   0  0  0  0  0  0  0  0  0  0  0  0
    8.0632   14.0830   12.4866 C   0  0  0  0  0  0  0  0  0  0  0  0
    6.5550   14.1746   12.2030 C   0  0  0  0  0  0  0  0  0  0  0  0
    5.8239   15.4346   12.7078 N   0  0  2  0  0  4  0  0  0  0  0  0
   10.1308   10.4484   11.1463 C   0  0  0  0  0  0  0  0  0  0  0  0
    9.9525   10.7402    9.9641 O   0  0  0  0  0  0  0  0  0  0  0  0
    6.3787   16.7060   12.0608 C   0  0  0  0  0  0  0  0  0  0  0  0
    6.0911   15.5488   14.2201 C   0  0  0  0  0  0  0  0  0  0  0  0
    4.3122   15.3698   12.5119 C   0  0  0  0  0  0  0  0  0  0  0  0
    9.5463    9.3178   11.7052 N   0  0  0  0  0  0  0  0  0  0  0  0
    8.8032    8.4003   10.8255 C   0  0  2  0  0  0  0  0  0  0  0  0
    8.3656    9.0281    9.4868 C   0  0  0  0  0  0  0  0  0  0  0  0
    9.1561    9.1771    8.5476 O   0  0  0  0  0  0  0  0  0  0  0  0
    7.5839    7.7924   11.5433 C   0  0  0  0  0  0  0  0  0  0  0  0
    7.5065    6.3742   11.3791 O   0  0  0  0  0  0  0  0  0  0  0  0
    7.0122    9.2851    9.3121 N   0  0  0  0  0  0  0  0  0  0  0  0
    6.5280    9.4540    7.9289 C   0  0  2  0  0  0  0  0  0  0  0  0
    6.7788   10.8202    7.2876 C   0  0  0  0  0  0  0  0  0  0  0  0
    7.9183   11.2172    7.0425 O   0  0  0  0  0  0  0  0  0  0  0  0
    5.0300    9.0553    7.7771 C   0  0  2  0  0  0  0  0  0  0  0  0
    4.1680   10.1242    8.2315 O   0  0  0  0  0  0  0  0  0  0  0  0
    4.6469    7.7438    8.4575 C   0  0  0  0  0  0  0  0  0  0  0  0
    5.6576   11.5967    7.1088 N   0  0  0  0  0  0  0  0  0  0  0  0
    4.7297   11.2496    6.0357 C   0  0  0  0  0  0  0  0  0  0  0  0
    3.5721   12.2455    5.9948 C   0  0  0  0  0  0  0  0  0  0  0  0
    2.7558   12.3791    5.1024 O   0  0  0  0  0  0  0  0  0  0  0  0
    3.5363   13.0855    7.0610 O   0  0  0  0  0  0  0  0  0  0  0  0
   18.1308   11.1876    8.1658 H   0  0  0  0  0  0  0  0  0  0  0  0
  2  1  1  1
  2  3  1  0
  2  5  1  0
  3  4  2  0
  3 10  1  0
  5  6  1  0
  6  7  1  0
  7  8  1  0
  8  9  1  0
 10 11  1  0
 11 12  1  0
 11 14  1  1
 12 13  2  0
 12 19  1  0
 14 15  1  0
 15 16  1  0
 16 17  2  0
 16 18  1  0
 20 19  1  1
 20 21  1  0
 20 23  1  0
 21 22  2  0
 21 26  1  0
 23 24  1  0
 23 25  1  1
 26 27  1  0
 27 28  1  0
 27 30  1  6
 28 29  2  0
 28 31  1  0
 31 32  1  0
 32 33  1  0
 32 35  1  1
 33 34  2  0
 33 42  1  0
 35 36  1  0
 36 37  1  0
 37 38  1  0
 38 39  1  0
 39 40  2  0
 39 41  1  0
 42 43  1  0
 43 44  1  6
 43 49  1  0
 44 45  1  0
 45 46  1  0
 46 47  1  0
 47 48  1  0
 48 51  1  6
 48 52  1  0
 48 53  1  0
 49 50  2  0
 49 54  1  0
 54 55  1  0
 55 56  1  0
 55 58  1  1
 56 57  2  0
 56 60  1  0
 58 59  1  0
 61 60  1  1
 61 62  1  0
 61 64  1  0
 62 63  2  0
 62 67  1  0
 64 65  1  0
 64 66  1  1
 67 68  1  0
 68 69  1  0
 69 70  2  0
 69 71  1  0
 40 72  1  0
M  CHG  3   1   1   9   1  48   1
M  END
$$$$
