
     RDKit          3D

 72 71  0  0  0  0  0  0  0  0999 V2000
   23.0279   23.2091   17.3151 N   0  0  0  0  0  4  0  0  0  0  0  0
   22.5658   21.7668   17.4046 C   0  0  2  0  0  0  0  0  0  0  0  0
   21.1295   21.6318   16.8282 C   0  0  0  0  0  0  0  0  0  0  0  0
   20.3428   22.5756   16.7881 O   0  0  0  0  0  0  0  0  0  0  0  0
   22.6301   21.3548   18.8953 C   0  0  0  0  0  0  0  0  0  0  0  0
   21.2592   20.9964   19.4988 C   0  0  0  0  0  0  0  0  0  0  0  0
   20.1242   21.9895   19.1969 C   0  0  0  0  0  0  0  0  0  0  0  0
   20.4379   23.4342   19.5911 C   0  0  0  0  0  0  0  0  0  0  0  0
   19.2468   24.0836   20.1796 N   0  0  0  0  0  4  0  0  0  0  0  0
   20.8064   20.3823   16.3434 N   0  0  0  0  0  0  0  0  0  0  0  0
   21.4246   19.8235   15.1405 C   0  0  2  0  0  0  0  0  0  0  0  0
   20.8478   18.4103   14.8609 C   0  0  0  0  0  0  0  0  0  0  0  0
   21.5544   17.3971   14.8194 O   0  0  0  0  0  0  0  0  0  0  0  0
   22.9667   19.8711   15.1359 C   0  0  0  0  0  0  0  0  0  0  0  0
   23.6543   19.8183   13.7638 C   0  0  0  0  0  0  0  0  0  0  0  0
   22.8244   20.3727   12.6166 C   0  0  0  0  0  0  0  0  0  0  0  0
   22.4711   21.5457   12.5354 O   0  0  0  0  0  0  0  0  0  0  0  0
   22.5859   19.4881   11.6059 N   0  0  0  0  0  0  0  0  0  0  0  0
   19.4849   18.3497   14.7313 N   0  0  0  0  0  0  0  0  0  0  0  0
   18.7283   17.1032   14.8472 C   0  0  2  0  0  0  0  0  0  0  0  0
   17.7556   17.0740   13.6392 C   0  0  0  0  0  0  0  0  0  0  0  0
   17.4646   18.1068   13.0346 O   0  0  0  0  0  0  0  0  0  0  0  0
   17.9746   16.9725   16.1909 C   0  0  2  0  0  0  0  0  0  0  0  0
   17.3495   18.2026   16.5438 O   0  0  0  0  0  0  0  0  0  0  0  0
   18.8566   16.5184   17.3477 C   0  0  0  0  0  0  0  0  0  0  0  0
   17.3249   15.8277   13.2500 N   0  0  0  0  0  0  0  0  0  0  0  0
   16.4364   15.5943   12.0960 C   0  0  2  0  0  0  0  0  0  0  0  0
   15.5945   14.3797   12.5183 C   0  0  0  0  0  0  0  0  0  0  0  0
   16.0463   13.4467   13.1819 O   0  0  0  0  0  0  0  0  0  0  0  0
   17.1166   15.3434   10.7594 C   0  0  0  0  0  0  0  0  0  0  0  0
   14.3489   14.3019   11.9316 N   0  0  0  0  0  0  0  0  0  0  0  0
   13.3918   13.2343   12.2490 C   0  0  2  0  0  0  0  0  0  0  0  0
   13.6490   12.0084   11.3266 C   0  0  0  0  0  0  0  0  0  0  0  0
   14.2816   11.0126   11.6642 O   0  0  0  0  0  0  0  0  0  0  0  0
   11.9727   13.7906   12.0858 C   0  0  0  0  0  0  0  0  0  0  0  0
   10.9417   13.1544   13.0153 C   0  0  0  0  0  0  0  0  0  0  0  0
    9.5061   13.5897   12.7051 C   0  0  0  0  0  0  0  0  0  0  0  0
    8.4987   12.5765   13.0255 N   0  0  0  0  0  0  0  0  0  0  0  0
    7.6911   12.6862   14.1093 C   0  0  0  0  0  0  0  0  0  0  0  0
    8.0288   12.3678   15.3076 N   0  0  0  0  0  0  0  0  0  0  0  0
    6.4564   13.1269   13.7912 N   0  0  0  0  0  0  0  0  0  0  0  0
   13.1555   12.1298   10.0387 N   0  0  0  0  0  0  0  0  0  0  0  0
   13.5223   11.2192    8.9517 C   0  0  1  0  0  0  0  0  0  0  0  0
   14.9984   10.7686    8.9648 C   0  0  0  0  0  0  0  0  0  0  0  0
   15.5717   10.2368    7.6368 C   0  0  0  0  0  0  0  0  0  0  0  0
   16.6729   11.1308    7.0647 C   0  0  0  0  0  0  0  0  0  0  0  0
   17.9917   10.4248    6.7101 C   0  0  0  0  0  0  0  0  0  0  0  0
   18.7669   10.9626    5.4908 N   0  0  2  0  0  4  0  0  0  0  0  0
   12.5175   10.0573    8.6850 C   0  0  0  0  0  0  0  0  0  0  0  0
   12.6924    9.2163    7.8037 O   0  0  0  0  0  0  0  0  0  0  0  0
   18.4117   12.4219    5.1953 C   0  0  0  0  0  0  0  0  0  0  0  0
   18.3296   10.1387    4.2654 C   0  0  0  0  0  0  0  0  0  0  0  0
   20.2791   10.8143    5.6284 C   0  0  0  0  0  0  0  0  0  0  0  0
   11.3425   10.0896    9.4269 N   0  0  0  0  0  0  0  0  0  0  0  0
   10.2818    9.1189    9.1099 C   0  0  2  0  0  0  0  0  0  0  0  0
    8.9424    9.3950    9.8222 C   0  0  0  0  0  0  0  0  0  0  0  0
    8.7639    9.1031   11.0106 O   0  0  0  0  0  0  0  0  0  0  0  0
   10.7361    7.6740    9.3886 C   0  0  0  0  0  0  0  0  0  0  0  0
   10.9115    7.4178   10.7842 O   0  0  0  0  0  0  0  0  0  0  0  0
    7.9858   10.1235    9.1276 N   0  0  0  0  0  0  0  0  0  0  0  0
    7.5588   11.4096    9.7106 C   0  0  2  0  0  0  0  0  0  0  0  0
    7.2387   11.3998   11.2066 C   0  0  0  0  0  0  0  0  0  0  0  0
    7.6367   12.2919   11.9563 O   0  0  0  0  0  0  0  0  0  0  0  0
    6.3872   12.0566    8.9139 C   0  0  2  0  0  0  0  0  0  0  0  0
    5.1264   11.4451    9.2722 O   0  0  0  0  0  0  0  0  0  0  0  0
    6.5653   12.0481    7.3980 C   0  0  0  0  0  0  0  0  0  0  0  0
    6.5746   10.2818   11.6549 N   0  0  0  0  0  0  0  0  0  0  0  0
    5.1833   10.0869   11.2557 C   0  0  0  0  0  0  0  0  0  0  0  0
    4.4581    9.2112   12.2757 C   0  0  0  0  0  0  0  0  0  0  0  0
    3.9820    8.1081   12.0829 O   0  0  0  0  0  0  0  0  0  0  0  0
    4.3017    9.8009   13.4888 O   0  0  0  0  0  0  0  0  0  0  0  0
    7.5785   11.4884   15.5687 H   0  0  0  0  0  0  0  0  0  0  0  0
  2  1  1  1
  2  3  1  0
  2  5  1  0
  3  4  2  0
  3 10  1  0
  5  6  1  0
  6  7  1  0
  7  8  1  0
  8  9  1  0
 10 11  1  0
 11 12  1  0
 11 14  1  1
 12 13  2  0
 12 19  1  0
 14 15  1  0
 15 16  1  0
 16 17  2  0
 16 18  1  0
 20 19  1  1
 20 21  1  0
 20 23  1  0
 21 22  2  0
 21 26  1  0
 23 24  1  0
 23 25  1  1
 26 27  1  0
 27 28  1  0
 27 30  1  6
 28 29  2  0
 28 31  1  0
 31 32  1  0
 32 33  1  0
 32 35  1  6
 33 34  2  0
 33 42  1  0
 35 36  1  0
 36 37  1  0
 37 38  1  0
 38 39  1  0
 39 40  2  0
 39 41  1  0
 42 43  1  0
 43 44  1  1
 43 49  1  0
 44 45  1  0
 45 46  1  0
 46 47  1  0
 47 48  1  0
 48 51  1  6
 48 52  1  0
 48 53  1  0
 49 50  2  0
 49 54  1  0
 54 55  1  0
 55 56  1  0
 55 58  1  1
 56 57  2  0
 56 60  1  0
 58 59  1  0
 61 60  1  6
 61 62  1  0
 61 64  1  0
 62 63  2  0
 62 67  1  0
 64 65  1  0
 64 66  1  6
 67 68  1  0
 68 69  1  0
 69 70  2  0
 69 71  1  0
 40 72  1  0
M  CHG  3   1   1   9   1  48   1
M  END
$$$$
