
     RDKit          3D

 72 71  0  0  0  0  0  0  0  0999 V2000
   23.6502   22.0693   15.0504 N   0  0  0  0  0  4  0  0  0  0  0  0
   23.4748   21.1396   13.8644 C   0  0  2  0  0  0  0  0  0  0  0  0
   22.0252   20.5818   13.8358 C   0  0  0  0  0  0  0  0  0  0  0  0
   21.0567   21.2408   14.2086 O   0  0  0  0  0  0  0  0  0  0  0  0
   24.5244   20.0106   14.0058 C   0  0  0  0  0  0  0  0  0  0  0  0
   25.6726   20.1003   12.9833 C   0  0  0  0  0  0  0  0  0  0  0  0
   27.0619   19.7075   13.5137 C   0  0  0  0  0  0  0  0  0  0  0  0
   28.1863   19.8540   12.4863 C   0  0  0  0  0  0  0  0  0  0  0  0
   29.4806   19.4380   13.0683 N   0  0  0  0  0  4  0  0  0  0  0  0
   21.8985   19.3013   13.3408 N   0  0  0  0  0  0  0  0  0  0  0  0
   20.6032   18.7245   12.9794 C   0  0  2  0  0  0  0  0  0  0  0  0
   19.6639   18.7255   14.2147 C   0  0  0  0  0  0  0  0  0  0  0  0
   19.5346   19.7074   14.9541 O   0  0  0  0  0  0  0  0  0  0  0  0
   20.6901   17.3556   12.2731 C   0  0  0  0  0  0  0  0  0  0  0  0
   20.4412   17.3443   10.7578 C   0  0  0  0  0  0  0  0  0  0  0  0
   20.4241   18.7186   10.1074 C   0  0  0  0  0  0  0  0  0  0  0  0
   21.2796   19.5769   10.3046 O   0  0  0  0  0  0  0  0  0  0  0  0
   19.4354   18.9008    9.1854 N   0  0  0  0  0  0  0  0  0  0  0  0
   18.9300   17.5819   14.3926 N   0  0  0  0  0  0  0  0  0  0  0  0
   19.1226   16.6804   15.5282 C   0  0  2  0  0  0  0  0  0  0  0  0
   18.0691   15.5529   15.3687 C   0  0  0  0  0  0  0  0  0  0  0  0
   17.8881   14.7237   16.2613 O   0  0  0  0  0  0  0  0  0  0  0  0
   18.9967   17.3905   16.8960 C   0  0  2  0  0  0  0  0  0  0  0  0
   17.7248   18.0176   17.0269 O   0  0  0  0  0  0  0  0  0  0  0  0
   20.0853   18.4256   17.1525 C   0  0  0  0  0  0  0  0  0  0  0  0
   17.3108   15.6025   14.2230 N   0  0  0  0  0  0  0  0  0  0  0  0
   15.8576   15.3515   14.1940 C   0  0  2  0  0  0  0  0  0  0  0  0
   15.7336   13.9807   13.5100 C   0  0  0  0  0  0  0  0  0  0  0  0
   15.8404   12.9150   14.1163 O   0  0  0  0  0  0  0  0  0  0  0  0
   15.0064   16.3911   13.4820 C   0  0  0  0  0  0  0  0  0  0  0  0
   15.6980   14.0184   12.1319 N   0  0  0  0  0  0  0  0  0  0  0  0
   14.6687   13.3222   11.3492 C   0  0  2  0  0  0  0  0  0  0  0  0
   13.5420   12.8180   12.2958 C   0  0  0  0  0  0  0  0  0  0  0  0
   13.6394   12.7682   13.5179 O   0  0  0  0  0  0  0  0  0  0  0  0
   15.3354   12.1735   10.5837 C   0  0  0  0  0  0  0  0  0  0  0  0
   16.6220   12.5676    9.8620 C   0  0  0  0  0  0  0  0  0  0  0  0
   16.5911   12.2469    8.3643 C   0  0  0  0  0  0  0  0  0  0  0  0
   16.6959   10.8177    8.0635 N   0  0  0  0  0  0  0  0  0  0  0  0
   17.8746   10.1523    8.1463 C   0  0  0  0  0  0  0  0  0  0  0  0
   18.7307   10.0607    7.1923 N   0  0  0  0  0  0  0  0  0  0  0  0
   18.0415    9.5431    9.3382 N   0  0  0  0  0  0  0  0  0  0  0  0
   12.4021   12.3587   11.6579 N   0  0  0  0  0  0  0  0  0  0  0  0
   11.3144   11.6720   12.3583 C   0  0  1  0  0  0  0  0  0  0  0  0
   10.3611   12.6065   13.1328 C   0  0  0  0  0  0  0  0  0  0  0  0
    9.3896   13.4565   12.2909 C   0  0  0  0  0  0  0  0  0  0  0  0
    8.4766   14.3370   13.1455 C   0  0  0  0  0  0  0  0  0  0  0  0
    7.5010   15.2389   12.3722 C   0  0  0  0  0  0  0  0  0  0  0  0
    6.5772   16.1476   13.2075 N   0  0  2  0  0  4  0  0  0  0  0  0
   10.5774   10.5726   11.5342 C   0  0  0  0  0  0  0  0  0  0  0  0
   10.5338   10.5809   10.3044 O   0  0  0  0  0  0  0  0  0  0  0  0
    7.1508   17.5599   13.3468 C   0  0  0  0  0  0  0  0  0  0  0  0
    6.5039   15.5526   14.6261 C   0  0  0  0  0  0  0  0  0  0  0  0
    5.1532   16.2171   12.6643 C   0  0  0  0  0  0  0  0  0  0  0  0
    9.8653    9.6357   12.2740 N   0  0  0  0  0  0  0  0  0  0  0  0
    8.8494    8.8202   11.5878 C   0  0  2  0  0  0  0  0  0  0  0  0
    7.8403    9.6391   10.7578 C   0  0  0  0  0  0  0  0  0  0  0  0
    7.4680   10.7644   11.1100 O   0  0  0  0  0  0  0  0  0  0  0  0
    8.0983    7.9058   12.5734 C   0  0  0  0  0  0  0  0  0  0  0  0
    7.5555    8.6286   13.6813 O   0  0  0  0  0  0  0  0  0  0  0  0
    7.4740    9.1355    9.5166 N   0  0  0  0  0  0  0  0  0  0  0  0
    6.8930   10.0826    8.5462 C   0  0  2  0  0  0  0  0  0  0  0  0
    5.6167   10.8024    8.9860 C   0  0  0  0  0  0  0  0  0  0  0  0
    5.4190   11.9870    8.7143 O   0  0  0  0  0  0  0  0  0  0  0  0
    6.6904    9.4371    7.1432 C   0  0  2  0  0  0  0  0  0  0  0  0
    7.9489    8.9598    6.6137 O   0  0  0  0  0  0  0  0  0  0  0  0
    5.9954   10.3343    6.1226 C   0  0  0  0  0  0  0  0  0  0  0  0
    4.7746   10.0637    9.7842 N   0  0  0  0  0  0  0  0  0  0  0  0
    4.8262    8.6068    9.6965 C   0  0  0  0  0  0  0  0  0  0  0  0
    3.6241    8.0811    8.9141 C   0  0  0  0  0  0  0  0  0  0  0  0
    3.4483    8.1518    7.7122 O   0  0  0  0  0  0  0  0  0  0  0  0
    2.6534    7.5460    9.6986 O   0  0  0  0  0  0  0  0  0  0  0  0
   18.2459   10.0828    6.2930 H   0  0  0  0  0  0  0  0  0  0  0  0
  2  1  1  1
  2  3  1  0
  2  5  1  0
  3  4  2  0
  3 10  1  0
  5  6  1  0
  6  7  1  0
  7  8  1  0
  8  9  1  0
 10 11  1  0
 11 12  1  0
 11 14  1  1
 12 13  2  0
 12 19  1  0
 14 15  1  0
 15 16  1  0
 16 17  2  0
 16 18  1  0
 20 19  1  6
 20 21  1  0
 20 23  1  0
 21 22  2  0
 21 26  1  0
 23 24  1  0
 23 25  1  6
 26 27  1  0
 27 28  1  0
 27 30  1  6
 28 29  2  0
 28 31  1  0
 31 32  1  0
 32 33  1  0
 32 35  1  1
 33 34  2  0
 33 42  1  0
 35 36  1  0
 36 37  1  0
 37 38  1  0
 38 39  1  0
 39 40  2  0
 39 41  1  0
 42 43  1  0
 43 44  1  6
 43 49  1  0
 44 45  1  0
 45 46  1  0
 46 47  1  0
 47 48  1  0
 48 51  1  1
 48 52  1  0
 48 53  1  0
 49 50  2  0
 49 54  1  0
 54 55  1  0
 55 56  1  0
 55 58  1  1
 56 57  2  0
 56 60  1  0
 58 59  1  0
 61 60  1  1
 61 62  1  0
 61 64  1  0
 62 63  2  0
 62 67  1  0
 64 65  1  0
 64 66  1  6
 67 68  1  0
 68 69  1  0
 69 70  2  0
 69 71  1  0
 40 72  1  0
M  CHG  3   1   1   9   1  48   1
M  END
$$$$
