
     RDKit          3D

 72 71  0  0  0  0  0  0  0  0999 V2000
   26.3026   22.4139   15.5022 N   0  0  0  0  0  4  0  0  0  0  0  0
   25.6897   21.0285   15.5849 C   0  0  2  0  0  0  0  0  0  0  0  0
   24.2756   21.0335   14.9418 C   0  0  0  0  0  0  0  0  0  0  0  0
   23.5990   22.0550   14.8423 O   0  0  0  0  0  0  0  0  0  0  0  0
   25.6413   20.6355   17.0813 C   0  0  0  0  0  0  0  0  0  0  0  0
   25.0562   19.2337   17.3354 C   0  0  0  0  0  0  0  0  0  0  0  0
   25.0383   18.7815   18.8053 C   0  0  0  0  0  0  0  0  0  0  0  0
   23.7932   17.9835   19.1976 C   0  0  0  0  0  0  0  0  0  0  0  0
   23.8578   17.5837   20.6198 N   0  0  0  0  0  4  0  0  0  0  0  0
   23.8412   19.8133   14.4694 N   0  0  0  0  0  0  0  0  0  0  0  0
   22.5248   19.6328   13.8563 C   0  0  2  0  0  0  0  0  0  0  0  0
   21.5216   19.0978   14.9125 C   0  0  0  0  0  0  0  0  0  0  0  0
   21.8811   18.4893   15.9264 O   0  0  0  0  0  0  0  0  0  0  0  0
   22.5378   18.8135   12.5491 C   0  0  0  0  0  0  0  0  0  0  0  0
   23.8573   18.7883   11.7639 C   0  0  0  0  0  0  0  0  0  0  0  0
   24.6804   20.0628   11.8655 C   0  0  0  0  0  0  0  0  0  0  0  0
   25.6683   20.1809   12.5849 O   0  0  0  0  0  0  0  0  0  0  0  0
   24.3076   21.0525   11.0039 N   0  0  0  0  0  0  0  0  0  0  0  0
   20.2070   19.4076   14.6804 N   0  0  0  0  0  0  0  0  0  0  0  0
   19.1198   18.9750   15.5581 C   0  0  2  0  0  0  0  0  0  0  0  0
   18.5517   17.6736   14.9335 C   0  0  0  0  0  0  0  0  0  0  0  0
   18.7674   17.3898   13.7545 O   0  0  0  0  0  0  0  0  0  0  0  0
   18.0215   20.0482   15.7395 C   0  0  2  0  0  0  0  0  0  0  0  0
   17.4413   20.3973   14.4866 O   0  0  0  0  0  0  0  0  0  0  0  0
   18.5112   21.3173   16.4265 C   0  0  0  0  0  0  0  0  0  0  0  0
   17.8824   16.8398   15.7977 N   0  0  0  0  0  0  0  0  0  0  0  0
   17.1660   15.6239   15.3688 C   0  0  2  0  0  0  0  0  0  0  0  0
   16.4356   16.0585   14.0881 C   0  0  0  0  0  0  0  0  0  0  0  0
   16.2038   17.2356   13.8131 O   0  0  0  0  0  0  0  0  0  0  0  0
   16.1919   15.0247   16.3709 C   0  0  0  0  0  0  0  0  0  0  0  0
   15.8728   15.0307   13.3611 N   0  0  0  0  0  0  0  0  0  0  0  0
   15.1590   15.2556   12.0976 C   0  0  2  0  0  0  0  0  0  0  0  0
   14.1814   14.0755   11.8305 C   0  0  0  0  0  0  0  0  0  0  0  0
   13.5731   13.9092   10.7779 O   0  0  0  0  0  0  0  0  0  0  0  0
   16.1934   15.4121   10.9771 C   0  0  0  0  0  0  0  0  0  0  0  0
   16.0644   16.7111   10.1850 C   0  0  0  0  0  0  0  0  0  0  0  0
   17.4048   17.2181    9.6435 C   0  0  0  0  0  0  0  0  0  0  0  0
   18.2553   16.1633    9.0884 N   0  0  0  0  0  0  0  0  0  0  0  0
   19.2625   16.4361    8.2223 C   0  0  0  0  0  0  0  0  0  0  0  0
   19.7463   15.5981    7.3767 N   0  0  0  0  0  0  0  0  0  0  0  0
   19.7488   17.6854    8.3722 N   0  0  0  0  0  0  0  0  0  0  0  0
   13.9845   13.2228   12.9035 N   0  0  0  0  0  0  0  0  0  0  0  0
   13.0032   12.1355   12.8923 C   0  0  1  0  0  0  0  0  0  0  0  0
   11.7836   12.3644   13.8101 C   0  0  0  0  0  0  0  0  0  0  0  0
   10.5077   12.9128   13.1422 C   0  0  0  0  0  0  0  0  0  0  0  0
    9.3521   13.0942   14.1275 C   0  0  0  0  0  0  0  0  0  0  0  0
    8.6986   14.4856   14.1441 C   0  0  0  0  0  0  0  0  0  0  0  0
    7.5604   14.7115   15.1592 N   0  0  2  0  0  4  0  0  0  0  0  0
   12.6283   11.5877   11.4816 C   0  0  0  0  0  0  0  0  0  0  0  0
   13.3172   11.7951   10.4831 O   0  0  0  0  0  0  0  0  0  0  0  0
    7.4749   16.1765   15.5942 C   0  0  0  0  0  0  0  0  0  0  0  0
    7.8945   13.8897   16.4181 C   0  0  0  0  0  0  0  0  0  0  0  0
    6.2011   14.2410   14.6507 C   0  0  0  0  0  0  0  0  0  0  0  0
   11.4000   10.9435   11.3881 N   0  0  0  0  0  0  0  0  0  0  0  0
   11.0235   10.3265   10.1054 C   0  0  2  0  0  0  0  0  0  0  0  0
    9.7459    9.4657   10.1719 C   0  0  0  0  0  0  0  0  0  0  0  0
    9.6803    8.4500   10.8742 O   0  0  0  0  0  0  0  0  0  0  0  0
   12.1815    9.5018    9.5133 C   0  0  0  0  0  0  0  0  0  0  0  0
   11.7932    8.1606    9.2052 O   0  0  0  0  0  0  0  0  0  0  0  0
    8.6127    9.9509    9.5326 N   0  0  0  0  0  0  0  0  0  0  0  0
    7.5879    8.9682    9.1321 C   0  0  2  0  0  0  0  0  0  0  0  0
    8.0944    7.5658    8.7897 C   0  0  0  0  0  0  0  0  0  0  0  0
    9.1996    7.3875    8.2770 O   0  0  0  0  0  0  0  0  0  0  0  0
    6.6736    9.5038    7.9905 C   0  0  2  0  0  0  0  0  0  0  0  0
    7.3313    9.3798    6.7083 O   0  0  0  0  0  0  0  0  0  0  0  0
    6.1736   10.9319    8.1906 C   0  0  0  0  0  0  0  0  0  0  0  0
    7.1901    6.5506    8.9987 N   0  0  0  0  0  0  0  0  0  0  0  0
    7.6098    5.1755    8.7419 C   0  0  0  0  0  0  0  0  0  0  0  0
    8.7423    4.7827    9.6888 C   0  0  0  0  0  0  0  0  0  0  0  0
    8.6323    4.2409   10.7727 O   0  0  0  0  0  0  0  0  0  0  0  0
    9.9728    5.1578    9.2539 O   0  0  0  0  0  0  0  0  0  0  0  0
   19.1349   14.7816    7.3147 H   0  0  0  0  0  0  0  0  0  0  0  0
  2  1  1  1
  2  3  1  0
  2  5  1  0
  3  4  2  0
  3 10  1  0
  5  6  1  0
  6  7  1  0
  7  8  1  0
  8  9  1  0
 10 11  1  0
 11 12  1  0
 11 14  1  6
 12 13  2  0
 12 19  1  0
 14 15  1  0
 15 16  1  0
 16 17  2  0
 16 18  1  0
 20 19  1  6
 20 21  1  0
 20 23  1  0
 21 22  2  0
 21 26  1  0
 23 24  1  0
 23 25  1  6
 26 27  1  0
 27 28  1  0
 27 30  1  1
 28 29  2  0
 28 31  1  0
 31 32  1  0
 32 33  1  0
 32 35  1  6
 33 34  2  0
 33 42  1  0
 35 36  1  0
 36 37  1  0
 37 38  1  0
 38 39  1  0
 39 40  2  0
 39 41  1  0
 42 43  1  0
 43 44  1  6
 43 49  1  0
 44 45  1  0
 45 46  1  0
 46 47  1  0
 47 48  1  0
 48 51  1  1
 48 52  1  0
 48 53  1  0
 49 50  2  0
 49 54  1  0
 54 55  1  0
 55 56  1  0
 55 58  1  1
 56 57  2  0
 56 60  1  0
 58 59  1  0
 61 60  1  6
 61 62  1  0
 61 64  1  0
 62 63  2  0
 62 67  1  0
 64 65  1  0
 64 66  1  1
 67 68  1  0
 68 69  1  0
 69 70  2  0
 69 71  1  0
 40 72  1  0
M  CHG  3   1   1   9   1  48   1
M  END
$$$$
