
     RDKit          3D

 72 71  0  0  0  0  0  0  0  0999 V2000
   22.3252   24.9569   16.1597 N   0  0  0  0  0  4  0  0  0  0  0  0
   21.1880   23.9538   16.1091 C   0  0  2  0  0  0  0  0  0  0  0  0
   21.7475   22.5287   15.8457 C   0  0  0  0  0  0  0  0  0  0  0  0
   22.9135   22.3283   15.5117 O   0  0  0  0  0  0  0  0  0  0  0  0
   20.2217   24.4100   14.9892 C   0  0  0  0  0  0  0  0  0  0  0  0
   20.5368   25.8105   14.4312 C   0  0  0  0  0  0  0  0  0  0  0  0
   19.3580   26.7984   14.4210 C   0  0  0  0  0  0  0  0  0  0  0  0
   19.2458   27.6228   13.1369 C   0  0  0  0  0  0  0  0  0  0  0  0
   17.8752   27.5460   12.5871 N   0  0  0  0  0  4  0  0  0  0  0  0
   20.8485   21.5007   16.0350 N   0  0  0  0  0  0  0  0  0  0  0  0
   21.2073   20.2619   16.7261 C   0  0  2  0  0  0  0  0  0  0  0  0
   19.9607   19.3452   16.8438 C   0  0  0  0  0  0  0  0  0  0  0  0
   19.8073   18.5428   17.7712 O   0  0  0  0  0  0  0  0  0  0  0  0
   21.9469   20.4699   18.0640 C   0  0  0  0  0  0  0  0  0  0  0  0
   23.1835   21.3801   18.0342 C   0  0  0  0  0  0  0  0  0  0  0  0
   24.5115   20.6438   17.9559 C   0  0  0  0  0  0  0  0  0  0  0  0
   25.5094   20.9678   18.5936 O   0  0  0  0  0  0  0  0  0  0  0  0
   24.4907   19.5092   17.1988 N   0  0  0  0  0  0  0  0  0  0  0  0
   19.0021   19.5351   15.8829 N   0  0  0  0  0  0  0  0  0  0  0  0
   19.0664   18.9143   14.5601 C   0  0  2  0  0  0  0  0  0  0  0  0
   19.0108   17.3824   14.7982 C   0  0  0  0  0  0  0  0  0  0  0  0
   19.2535   16.9041   15.9069 O   0  0  0  0  0  0  0  0  0  0  0  0
   20.3236   19.3224   13.7578 C   0  0  2  0  0  0  0  0  0  0  0  0
   20.4460   18.5403   12.5738 O   0  0  0  0  0  0  0  0  0  0  0  0
   21.6195   19.2187   14.5529 C   0  0  0  0  0  0  0  0  0  0  0  0
   18.5936   16.6270   13.7280 N   0  0  0  0  0  0  0  0  0  0  0  0
   18.3874   15.1678   13.7893 C   0  0  2  0  0  0  0  0  0  0  0  0
   18.5156   14.7152   12.3261 C   0  0  0  0  0  0  0  0  0  0  0  0
   19.4961   14.9702   11.6271 O   0  0  0  0  0  0  0  0  0  0  0  0
   17.0721   14.6958   14.3889 C   0  0  0  0  0  0  0  0  0  0  0  0
   17.3689   14.1780   11.7798 N   0  0  0  0  0  0  0  0  0  0  0  0
   16.0255   14.5439   12.2464 C   0  0  2  0  0  0  0  0  0  0  0  0
   15.0340   13.3816   11.9530 C   0  0  0  0  0  0  0  0  0  0  0  0
   15.2834   12.4323   11.2167 O   0  0  0  0  0  0  0  0  0  0  0  0
   15.6086   15.8458   11.5527 C   0  0  0  0  0  0  0  0  0  0  0  0
   16.2932   16.0843   10.2088 C   0  0  0  0  0  0  0  0  0  0  0  0
   16.6333   14.7856    9.4709 C   0  0  0  0  0  0  0  0  0  0  0  0
   16.7539   14.9440    8.0202 N   0  0  0  0  0  0  0  0  0  0  0  0
   17.9314   14.7574    7.3741 C   0  0  0  0  0  0  0  0  0  0  0  0
   18.7980   15.6802    7.1530 N   0  0  0  0  0  0  0  0  0  0  0  0
   18.0851   13.4911    6.9352 N   0  0  0  0  0  0  0  0  0  0  0  0
   13.7888   13.5096   12.5449 N   0  0  0  0  0  0  0  0  0  0  0  0
   12.7173   12.5255   12.3761 C   0  0  1  0  0  0  0  0  0  0  0  0
   11.5494   12.6731   13.3742 C   0  0  0  0  0  0  0  0  0  0  0  0
   11.2615   11.4649   14.2865 C   0  0  0  0  0  0  0  0  0  0  0  0
   10.3398   11.8104   15.4571 C   0  0  0  0  0  0  0  0  0  0  0  0
    9.4831   10.6544   15.9985 C   0  0  0  0  0  0  0  0  0  0  0  0
    8.6505   10.9349   17.2654 N   0  0  2  0  0  4  0  0  0  0  0  0
   12.2554   12.2854   10.9064 C   0  0  0  0  0  0  0  0  0  0  0  0
   12.0680   13.2046   10.1098 O   0  0  0  0  0  0  0  0  0  0  0  0
    9.5251   10.9585   18.5214 C   0  0  0  0  0  0  0  0  0  0  0  0
    7.6580    9.7693   17.4332 C   0  0  0  0  0  0  0  0  0  0  0  0
    7.8366   12.2221   17.1756 C   0  0  0  0  0  0  0  0  0  0  0  0
   11.9506   10.9706   10.5738 N   0  0  0  0  0  0  0  0  0  0  0  0
   11.2646   10.7071    9.2979 C   0  0  2  0  0  0  0  0  0  0  0  0
    9.7314   10.5969    9.4186 C   0  0  0  0  0  0  0  0  0  0  0  0
    9.1858    9.5972    9.9002 O   0  0  0  0  0  0  0  0  0  0  0  0
   11.8275    9.4540    8.6017 C   0  0  0  0  0  0  0  0  0  0  0  0
   11.7656    8.2939    9.4351 O   0  0  0  0  0  0  0  0  0  0  0  0
    8.9818   11.7236    9.1071 N   0  0  0  0  0  0  0  0  0  0  0  0
    7.9038   11.5661    8.1124 C   0  0  2  0  0  0  0  0  0  0  0  0
    6.9807   10.3610    8.3020 C   0  0  0  0  0  0  0  0  0  0  0  0
    7.0994    9.3446    7.6171 O   0  0  0  0  0  0  0  0  0  0  0  0
    8.4411   11.6077    6.6510 C   0  0  2  0  0  0  0  0  0  0  0  0
    8.3367   12.9434    6.1059 O   0  0  0  0  0  0  0  0  0  0  0  0
    7.7941   10.6001    5.7046 C   0  0  0  0  0  0  0  0  0  0  0  0
    5.9613   10.5424    9.2075 N   0  0  0  0  0  0  0  0  0  0  0  0
    6.1826   10.1533   10.5978 C   0  0  0  0  0  0  0  0  0  0  0  0
    6.3584    8.6395   10.7017 C   0  0  0  0  0  0  0  0  0  0  0  0
    7.1687    7.9563   10.1038 O   0  0  0  0  0  0  0  0  0  0  0  0
    5.4487    8.0382   11.5108 O   0  0  0  0  0  0  0  0  0  0  0  0
   18.4518   16.3087    6.4254 H   0  0  0  0  0  0  0  0  0  0  0  0
  2  1  1  6
  2  3  1  0
  2  5  1  0
  3  4  2  0
  3 10  1  0
  5  6  1  0
  6  7  1  0
  7  8  1  0
  8  9  1  0
 10 11  1  0
 11 12  1  0
 11 14  1  1
 12 13  2  0
 12 19  1  0
 14 15  1  0
 15 16  1  0
 16 17  2  0
 16 18  1  0
 20 19  1  1
 20 21  1  0
 20 23  1  0
 21 22  2  0
 21 26  1  0
 23 24  1  0
 23 25  1  1
 26 27  1  0
 27 28  1  0
 27 30  1  6
 28 29  2  0
 28 31  1  0
 31 32  1  0
 32 33  1  0
 32 35  1  6
 33 34  2  0
 33 42  1  0
 35 36  1  0
 36 37  1  0
 37 38  1  0
 38 39  1  0
 39 40  2  0
 39 41  1  0
 42 43  1  0
 43 44  1  1
 43 49  1  0
 44 45  1  0
 45 46  1  0
 46 47  1  0
 47 48  1  0
 48 51  1  1
 48 52  1  0
 48 53  1  0
 49 50  2  0
 49 54  1  0
 54 55  1  0
 55 56  1  0
 55 58  1  1
 56 57  2  0
 56 60  1  0
 58 59  1  0
 61 60  1  1
 61 62  1  0
 61 64  1  0
 62 63  2  0
 62 67  1  0
 64 65  1  0
 64 66  1  6
 67 68  1  0
 68 69  1  0
 69 70  2  0
 69 71  1  0
 40 72  1  0
M  CHG  3   1   1   9   1  48   1
M  END
$$$$
