
     RDKit          3D

 72 71  0  0  0  0  0  0  0  0999 V2000
   27.5175   21.5468   17.6451 N   0  0  0  0  0  4  0  0  0  0  0  0
   26.2064   20.8787   18.0149 C   0  0  2  0  0  0  0  0  0  0  0  0
   25.0394   21.8975   17.8993 C   0  0  0  0  0  0  0  0  0  0  0  0
   25.2274   23.1008   17.7319 O   0  0  0  0  0  0  0  0  0  0  0  0
   26.3574   20.3360   19.4567 C   0  0  0  0  0  0  0  0  0  0  0  0
   27.6368   19.5072   19.6761 C   0  0  0  0  0  0  0  0  0  0  0  0
   27.4208   18.0995   20.2571 C   0  0  0  0  0  0  0  0  0  0  0  0
   28.7150   17.3233   20.5093 C   0  0  0  0  0  0  0  0  0  0  0  0
   28.4200   15.9899   21.0768 N   0  0  0  0  0  4  0  0  0  0  0  0
   23.7751   21.3531   17.9753 N   0  0  0  0  0  0  0  0  0  0  0  0
   22.6672   21.8226   17.1426 C   0  0  2  0  0  0  0  0  0  0  0  0
   21.3686   21.0596   17.5160 C   0  0  0  0  0  0  0  0  0  0  0  0
   20.7231   21.3026   18.5417 O   0  0  0  0  0  0  0  0  0  0  0  0
   22.9653   21.8267   15.6289 C   0  0  0  0  0  0  0  0  0  0  0  0
   21.9499   22.5448   14.7279 C   0  0  0  0  0  0  0  0  0  0  0  0
   21.6405   23.9764   15.1364 C   0  0  0  0  0  0  0  0  0  0  0  0
   20.8133   24.6838   14.5683 O   0  0  0  0  0  0  0  0  0  0  0  0
   22.2758   24.3964   16.2681 N   0  0  0  0  0  0  0  0  0  0  0  0
   20.9438   20.1406   16.5925 N   0  0  0  0  0  0  0  0  0  0  0  0
   19.7701   19.2916   16.7953 C   0  0  2  0  0  0  0  0  0  0  0  0
   19.6315   18.4316   15.5117 C   0  0  0  0  0  0  0  0  0  0  0  0
   19.9540   18.8798   14.4107 O   0  0  0  0  0  0  0  0  0  0  0  0
   18.4816   20.0953   17.0862 C   0  0  2  0  0  0  0  0  0  0  0  0
   18.0154   20.7499   15.9104 O   0  0  0  0  0  0  0  0  0  0  0  0
   18.6400   21.1284   18.1953 C   0  0  0  0  0  0  0  0  0  0  0  0
   19.2166   17.1351   15.7040 N   0  0  0  0  0  0  0  0  0  0  0  0
   18.9264   16.1986   14.6020 C   0  0  2  0  0  0  0  0  0  0  0  0
   17.3928   16.0981   14.5974 C   0  0  0  0  0  0  0  0  0  0  0  0
   16.6762   16.7186   15.3826 O   0  0  0  0  0  0  0  0  0  0  0  0
   19.5592   14.8195   14.7030 C   0  0  0  0  0  0  0  0  0  0  0  0
   16.8761   15.1081   13.7883 N   0  0  0  0  0  0  0  0  0  0  0  0
   15.4578   15.0562   13.4114 C   0  0  2  0  0  0  0  0  0  0  0  0
   15.1982   13.8100   12.5173 C   0  0  0  0  0  0  0  0  0  0  0  0
   15.6452   13.6703   11.3831 O   0  0  0  0  0  0  0  0  0  0  0  0
   15.0974   16.3635   12.6966 C   0  0  0  0  0  0  0  0  0  0  0  0
   16.2561   16.9952   11.9284 C   0  0  0  0  0  0  0  0  0  0  0  0
   15.8682   17.4327   10.5124 C   0  0  0  0  0  0  0  0  0  0  0  0
   16.1272   18.8477   10.2390 N   0  0  0  0  0  0  0  0  0  0  0  0
   15.1529   19.6833    9.8013 C   0  0  0  0  0  0  0  0  0  0  0  0
   14.1974   19.3420    9.0127 N   0  0  0  0  0  0  0  0  0  0  0  0
   15.3166   20.9461   10.2465 N   0  0  0  0  0  0  0  0  0  0  0  0
   14.3586   12.8571   13.0689 N   0  0  0  0  0  0  0  0  0  0  0  0
   13.4091   12.0720   12.2770 C   0  0  1  0  0  0  0  0  0  0  0  0
   11.9251   12.3458   12.6009 C   0  0  0  0  0  0  0  0  0  0  0  0
   11.4220   11.8861   13.9831 C   0  0  0  0  0  0  0  0  0  0  0  0
   10.0214   11.2738   13.9321 C   0  0  0  0  0  0  0  0  0  0  0  0
    9.3916   10.9289   15.2915 C   0  0  0  0  0  0  0  0  0  0  0  0
    7.9419   10.4043   15.2776 N   0  0  2  0  0  4  0  0  0  0  0  0
   13.7113   12.0004   10.7491 C   0  0  0  0  0  0  0  0  0  0  0  0
   13.8220   13.0041   10.0455 O   0  0  0  0  0  0  0  0  0  0  0  0
    7.1244   10.9747   16.4392 C   0  0  0  0  0  0  0  0  0  0  0  0
    8.0010    8.8786   15.4788 C   0  0  0  0  0  0  0  0  0  0  0  0
    7.2219   10.6663   13.9583 C   0  0  0  0  0  0  0  0  0  0  0  0
   13.7339   10.7260   10.1946 N   0  0  0  0  0  0  0  0  0  0  0  0
   13.5984   10.5898    8.7348 C   0  0  2  0  0  0  0  0  0  0  0  0
   12.2350   11.0531    8.1832 C   0  0  0  0  0  0  0  0  0  0  0  0
   11.8832   12.2378    8.2260 O   0  0  0  0  0  0  0  0  0  0  0  0
   13.8899    9.1502    8.2718 C   0  0  0  0  0  0  0  0  0  0  0  0
   15.2366    8.9854    7.8209 O   0  0  0  0  0  0  0  0  0  0  0  0
   11.4715   10.1190    7.4956 N   0  0  0  0  0  0  0  0  0  0  0  0
   10.3451   10.6264    6.6894 C   0  0  2  0  0  0  0  0  0  0  0  0
    9.6905    9.6237    5.7372 C   0  0  0  0  0  0  0  0  0  0  0  0
   10.2523    8.5748    5.4206 O   0  0  0  0  0  0  0  0  0  0  0  0
   10.7100   11.9341    5.9260 C   0  0  2  0  0  0  0  0  0  0  0  0
   11.3845   11.6292    4.6834 O   0  0  0  0  0  0  0  0  0  0  0  0
   11.5252   12.9389    6.7355 C   0  0  0  0  0  0  0  0  0  0  0  0
    8.4950   10.0304    5.1917 N   0  0  0  0  0  0  0  0  0  0  0  0
    7.7588   11.1095    5.8447 C   0  0  0  0  0  0  0  0  0  0  0  0
    6.3497   11.2152    5.2643 C   0  0  0  0  0  0  0  0  0  0  0  0
    5.4818   12.0016    5.5942 O   0  0  0  0  0  0  0  0  0  0  0  0
    6.0707   10.2684    4.3318 O   0  0  0  0  0  0  0  0  0  0  0  0
   14.5770   18.8240    8.2179 H   0  0  0  0  0  0  0  0  0  0  0  0
  2  1  1  1
  2  3  1  0
  2  5  1  0
  3  4  2  0
  3 10  1  0
  5  6  1  0
  6  7  1  0
  7  8  1  0
  8  9  1  0
 10 11  1  0
 11 12  1  0
 11 14  1  6
 12 13  2  0
 12 19  1  0
 14 15  1  0
 15 16  1  0
 16 17  2  0
 16 18  1  0
 20 19  1  6
 20 21  1  0
 20 23  1  0
 21 22  2  0
 21 26  1  0
 23 24  1  0
 23 25  1  1
 26 27  1  0
 27 28  1  0
 27 30  1  1
 28 29  2  0
 28 31  1  0
 31 32  1  0
 32 33  1  0
 32 35  1  6
 33 34  2  0
 33 42  1  0
 35 36  1  0
 36 37  1  0
 37 38  1  0
 38 39  1  0
 39 40  2  0
 39 41  1  0
 42 43  1  0
 43 44  1  6
 43 49  1  0
 44 45  1  0
 45 46  1  0
 46 47  1  0
 47 48  1  0
 48 51  1  1
 48 52  1  0
 48 53  1  0
 49 50  2  0
 49 54  1  0
 54 55  1  0
 55 56  1  0
 55 58  1  1
 56 57  2  0
 56 60  1  0
 58 59  1  0
 61 60  1  6
 61 62  1  0
 61 64  1  0
 62 63  2  0
 62 67  1  0
 64 65  1  0
 64 66  1  1
 67 68  1  0
 68 69  1  0
 69 70  2  0
 69 71  1  0
 40 72  1  0
M  CHG  3   1   1   9   1  48   1
M  END
$$$$
