
     RDKit          3D

 72 71  0  0  0  0  0  0  0  0999 V2000
   26.3301   22.6344    9.2193 N   0  0  0  0  0  4  0  0  0  0  0  0
   26.2748   21.3571   10.0362 C   0  0  2  0  0  0  0  0  0  0  0  0
   25.0626   20.4934    9.5911 C   0  0  0  0  0  0  0  0  0  0  0  0
   24.0215   20.9874    9.1630 O   0  0  0  0  0  0  0  0  0  0  0  0
   26.1746   21.7674   11.5254 C   0  0  0  0  0  0  0  0  0  0  0  0
   25.8437   20.5968   12.4699 C   0  0  0  0  0  0  0  0  0  0  0  0
   25.4060   20.9963   13.8892 C   0  0  0  0  0  0  0  0  0  0  0  0
   26.5637   21.1607   14.8761 C   0  0  0  0  0  0  0  0  0  0  0  0
   26.7110   22.5773   15.2742 N   0  0  0  0  0  4  0  0  0  0  0  0
   25.2453   19.1304    9.6891 N   0  0  0  0  0  0  0  0  0  0  0  0
   24.2295   18.1696    9.2576 C   0  0  2  0  0  0  0  0  0  0  0  0
   23.4760   17.6103   10.4936 C   0  0  0  0  0  0  0  0  0  0  0  0
   23.9538   17.6329   11.6332 O   0  0  0  0  0  0  0  0  0  0  0  0
   24.7529   17.0727    8.3074 C   0  0  0  0  0  0  0  0  0  0  0  0
   26.0391   16.3487    8.7317 C   0  0  0  0  0  0  0  0  0  0  0  0
   25.8158   15.0771    9.5349 C   0  0  0  0  0  0  0  0  0  0  0  0
   24.9389   14.2558    9.2817 O   0  0  0  0  0  0  0  0  0  0  0  0
   26.7427   14.8478   10.5092 N   0  0  0  0  0  0  0  0  0  0  0  0
   22.2088   17.1501   10.2474 N   0  0  0  0  0  0  0  0  0  0  0  0
   21.3013   16.7104   11.3069 C   0  0  2  0  0  0  0  0  0  0  0  0
   20.9644   15.2277   10.9999 C   0  0  0  0  0  0  0  0  0  0  0  0
   21.2200   14.7341    9.9008 O   0  0  0  0  0  0  0  0  0  0  0  0
   20.0246   17.5764   11.4117 C   0  0  2  0  0  0  0  0  0  0  0  0
   19.3368   17.6192   10.1653 O   0  0  0  0  0  0  0  0  0  0  0  0
   20.2874   19.0030   11.8787 C   0  0  0  0  0  0  0  0  0  0  0  0
   20.4543   14.5018   12.0503 N   0  0  0  0  0  0  0  0  0  0  0  0
   20.0652   13.0827   11.9496 C   0  0  2  0  0  0  0  0  0  0  0  0
   18.6287   13.0544   12.4954 C   0  0  0  0  0  0  0  0  0  0  0  0
   17.9715   12.0195   12.6045 O   0  0  0  0  0  0  0  0  0  0  0  0
   20.9451   12.0867   12.6885 C   0  0  0  0  0  0  0  0  0  0  0  0
   18.0456   14.2924   12.6655 N   0  0  0  0  0  0  0  0  0  0  0  0
   16.7399   14.4680   13.3142 C   0  0  2  0  0  0  0  0  0  0  0  0
   15.7109   13.4773   12.6981 C   0  0  0  0  0  0  0  0  0  0  0  0
   15.9978   12.6000   11.8896 O   0  0  0  0  0  0  0  0  0  0  0  0
   16.3063   15.9285   13.1448 C   0  0  0  0  0  0  0  0  0  0  0  0
   17.0206   16.6649   12.0138 C   0  0  0  0  0  0  0  0  0  0  0  0
   17.4850   18.0692   12.4127 C   0  0  0  0  0  0  0  0  0  0  0  0
   16.4909   18.8259   13.1765 N   0  0  0  0  0  0  0  0  0  0  0  0
   16.7159   19.2180   14.4551 C   0  0  0  0  0  0  0  0  0  0  0  0
   15.8702   19.8544   15.1839 N   0  0  0  0  0  0  0  0  0  0  0  0
   17.9588   18.9096   14.8791 N   0  0  0  0  0  0  0  0  0  0  0  0
   14.3967   13.6824   13.0827 N   0  0  0  0  0  0  0  0  0  0  0  0
   13.2989   12.7983   12.6847 C   0  0  1  0  0  0  0  0  0  0  0  0
   12.8921   11.7617   13.7534 C   0  0  0  0  0  0  0  0  0  0  0  0
   11.7267   10.8191   13.3954 C   0  0  0  0  0  0  0  0  0  0  0  0
   11.0300   10.2408   14.6280 C   0  0  0  0  0  0  0  0  0  0  0  0
   10.5202    8.7967   14.4931 C   0  0  0  0  0  0  0  0  0  0  0  0
    9.8097    8.1887   15.7188 N   0  0  2  0  0  4  0  0  0  0  0  0
   12.0854   13.5032   12.0055 C   0  0  0  0  0  0  0  0  0  0  0  0
   11.7026   14.6270   12.3296 O   0  0  0  0  0  0  0  0  0  0  0  0
    8.6829    9.0930   16.2239 C   0  0  0  0  0  0  0  0  0  0  0  0
   10.8474    8.0911   16.8527 C   0  0  0  0  0  0  0  0  0  0  0  0
    9.2730    6.7833   15.4650 C   0  0  0  0  0  0  0  0  0  0  0  0
   11.3785   12.7393   11.0840 N   0  0  0  0  0  0  0  0  0  0  0  0
   11.3246   13.1944    9.6848 C   0  0  2  0  0  0  0  0  0  0  0  0
    9.8956   13.4159    9.1494 C   0  0  0  0  0  0  0  0  0  0  0  0
    9.0538   12.5100    9.1447 O   0  0  0  0  0  0  0  0  0  0  0  0
   12.0930   12.2415    8.7503 C   0  0  0  0  0  0  0  0  0  0  0  0
   11.2355   11.5960    7.8058 O   0  0  0  0  0  0  0  0  0  0  0  0
    9.5328   14.7125    8.8096 N   0  0  0  0  0  0  0  0  0  0  0  0
    8.1907   14.9103    8.2301 C   0  0  2  0  0  0  0  0  0  0  0  0
    7.0962   13.9609    8.7214 C   0  0  0  0  0  0  0  0  0  0  0  0
    6.8170   12.9288    8.1106 O   0  0  0  0  0  0  0  0  0  0  0  0
    8.2202   14.9376    6.6731 C   0  0  2  0  0  0  0  0  0  0  0  0
    8.5486   13.6316    6.1453 O   0  0  0  0  0  0  0  0  0  0  0  0
    9.1403   15.9961    6.0709 C   0  0  0  0  0  0  0  0  0  0  0  0
    6.3922   14.3986    9.8190 N   0  0  0  0  0  0  0  0  0  0  0  0
    4.9333   14.3409    9.7833 C   0  0  0  0  0  0  0  0  0  0  0  0
    4.3569   15.7211    9.4726 C   0  0  0  0  0  0  0  0  0  0  0  0
    4.9833   16.7422    9.2592 O   0  0  0  0  0  0  0  0  0  0  0  0
    3.0005   15.7685    9.5142 O   0  0  0  0  0  0  0  0  0  0  0  0
   16.1096   19.7356   16.1702 H   0  0  0  0  0  0  0  0  0  0  0  0
  2  1  1  6
  2  3  1  0
  2  5  1  0
  3  4  2  0
  3 10  1  0
  5  6  1  0
  6  7  1  0
  7  8  1  0
  8  9  1  0
 10 11  1  0
 11 12  1  0
 11 14  1  1
 12 13  2  0
 12 19  1  0
 14 15  1  0
 15 16  1  0
 16 17  2  0
 16 18  1  0
 20 19  1  6
 20 21  1  0
 20 23  1  0
 21 22  2  0
 21 26  1  0
 23 24  1  0
 23 25  1  6
 26 27  1  0
 27 28  1  0
 27 30  1  1
 28 29  2  0
 28 31  1  0
 31 32  1  0
 32 33  1  0
 32 35  1  6
 33 34  2  0
 33 42  1  0
 35 36  1  0
 36 37  1  0
 37 38  1  0
 38 39  1  0
 39 40  2  0
 39 41  1  0
 42 43  1  0
 43 44  1  1
 43 49  1  0
 44 45  1  0
 45 46  1  0
 46 47  1  0
 47 48  1  0
 48 51  1  1
 48 52  1  0
 48 53  1  0
 49 50  2  0
 49 54  1  0
 54 55  1  0
 55 56  1  0
 55 58  1  6
 56 57  2  0
 56 60  1  0
 58 59  1  0
 61 60  1  6
 61 62  1  0
 61 64  1  0
 62 63  2  0
 62 67  1  0
 64 65  1  0
 64 66  1  1
 67 68  1  0
 68 69  1  0
 69 70  2  0
 69 71  1  0
 40 72  1  0
M  CHG  3   1   1   9   1  48   1
M  END
$$$$
