
     RDKit          3D

 72 71  0  0  0  0  0  0  0  0999 V2000
   23.9451   22.9581   16.5002 N   0  0  0  0  0  4  0  0  0  0  0  0
   22.4645   22.6366   16.5799 C   0  0  2  0  0  0  0  0  0  0  0  0
   22.1934   21.2280   15.9837 C   0  0  0  0  0  0  0  0  0  0  0  0
   22.3367   20.9780   14.7886 O   0  0  0  0  0  0  0  0  0  0  0  0
   21.7108   23.7452   15.8058 C   0  0  0  0  0  0  0  0  0  0  0  0
   20.1843   23.5451   15.7662 C   0  0  0  0  0  0  0  0  0  0  0  0
   19.3880   24.6687   15.0811 C   0  0  0  0  0  0  0  0  0  0  0  0
   20.1229   25.3323   13.9146 C   0  0  0  0  0  0  0  0  0  0  0  0
   19.2890   26.3938   13.3106 N   0  0  0  0  0  4  0  0  0  0  0  0
   21.8017   20.2703   16.8948 N   0  0  0  0  0  0  0  0  0  0  0  0
   21.5335   18.8842   16.5098 C   0  0  2  0  0  0  0  0  0  0  0  0
   20.5088   18.8508   15.3449 C   0  0  0  0  0  0  0  0  0  0  0  0
   20.3908   19.7752   14.5330 O   0  0  0  0  0  0  0  0  0  0  0  0
   21.1598   17.9574   17.6853 C   0  0  0  0  0  0  0  0  0  0  0  0
   20.3008   18.5705   18.8009 C   0  0  0  0  0  0  0  0  0  0  0  0
   21.0610   19.4638   19.7686 C   0  0  0  0  0  0  0  0  0  0  0  0
   20.5242   20.1154   20.6600 O   0  0  0  0  0  0  0  0  0  0  0  0
   22.4188   19.4074   19.6500 N   0  0  0  0  0  0  0  0  0  0  0  0
   19.7869   17.6912   15.2337 N   0  0  0  0  0  0  0  0  0  0  0  0
   18.7198   17.5086   14.2501 C   0  0  2  0  0  0  0  0  0  0  0  0
   18.2263   16.0471   14.4141 C   0  0  0  0  0  0  0  0  0  0  0  0
   18.6843   15.3186   15.2952 O   0  0  0  0  0  0  0  0  0  0  0  0
   19.1731   17.7992   12.8006 C   0  0  2  0  0  0  0  0  0  0  0  0
   18.2591   17.2413   11.8617 O   0  0  0  0  0  0  0  0  0  0  0  0
   20.5754   17.2940   12.4832 C   0  0  0  0  0  0  0  0  0  0  0  0
   17.2018   15.6662   13.5800 N   0  0  0  0  0  0  0  0  0  0  0  0
   16.3877   14.4538   13.7875 C   0  0  2  0  0  0  0  0  0  0  0  0
   16.0297   14.0016   12.3629 C   0  0  0  0  0  0  0  0  0  0  0  0
   16.5052   14.5209   11.3534 O   0  0  0  0  0  0  0  0  0  0  0  0
   15.1356   14.6176   14.6346 C   0  0  0  0  0  0  0  0  0  0  0  0
   14.9820   13.1086   12.2812 N   0  0  0  0  0  0  0  0  0  0  0  0
   14.2371   12.8768   11.0370 C   0  0  2  0  0  0  0  0  0  0  0  0
   12.8716   12.2057   11.3608 C   0  0  0  0  0  0  0  0  0  0  0  0
   12.7114   11.3526   12.2280 O   0  0  0  0  0  0  0  0  0  0  0  0
   15.0986   12.0121   10.1095 C   0  0  0  0  0  0  0  0  0  0  0  0
   14.4671   11.7373    8.7467 C   0  0  0  0  0  0  0  0  0  0  0  0
   15.3688   10.9109    7.8243 C   0  0  0  0  0  0  0  0  0  0  0  0
   16.3370   11.7112    7.0719 N   0  0  0  0  0  0  0  0  0  0  0  0
   16.3939   11.6804    5.7173 C   0  0  0  0  0  0  0  0  0  0  0  0
   17.0044   12.5475    4.9916 N   0  0  0  0  0  0  0  0  0  0  0  0
   15.6916   10.6546    5.1938 N   0  0  0  0  0  0  0  0  0  0  0  0
   11.8193   12.5965   10.5501 N   0  0  0  0  0  0  0  0  0  0  0  0
   10.4235   12.2510   10.8282 C   0  0  1  0  0  0  0  0  0  0  0  0
    9.4185   13.3950   10.5762 C   0  0  0  0  0  0  0  0  0  0  0  0
    8.0769   13.3165   11.3304 C   0  0  0  0  0  0  0  0  0  0  0  0
    7.0476   14.3255   10.8188 C   0  0  0  0  0  0  0  0  0  0  0  0
    5.6831   14.3074   11.5266 C   0  0  0  0  0  0  0  0  0  0  0  0
    4.9831   15.6659   11.7306 N   0  0  2  0  0  4  0  0  0  0  0  0
    9.9522   10.8728   10.2723 C   0  0  0  0  0  0  0  0  0  0  0  0
    9.7112   10.6839    9.0803 O   0  0  0  0  0  0  0  0  0  0  0  0
    4.0162   15.9797   10.5862 C   0  0  0  0  0  0  0  0  0  0  0  0
    6.0721   16.7546   11.7075 C   0  0  0  0  0  0  0  0  0  0  0  0
    4.2562   15.7713   13.0678 C   0  0  0  0  0  0  0  0  0  0  0  0
    9.7038    9.8888   11.2221 N   0  0  0  0  0  0  0  0  0  0  0  0
    8.7145    8.8433   10.9120 C   0  0  2  0  0  0  0  0  0  0  0  0
    8.4461    7.8659   12.0740 C   0  0  0  0  0  0  0  0  0  0  0  0
    8.9520    8.0267   13.1908 O   0  0  0  0  0  0  0  0  0  0  0  0
    9.1003    8.0581    9.6445 C   0  0  0  0  0  0  0  0  0  0  0  0
   10.2336    7.2115    9.8522 O   0  0  0  0  0  0  0  0  0  0  0  0
    7.4932    6.8763   11.8714 N   0  0  0  0  0  0  0  0  0  0  0  0
    6.1307    7.1352   12.3741 C   0  0  2  0  0  0  0  0  0  0  0  0
    5.0384    6.1814   11.8865 C   0  0  0  0  0  0  0  0  0  0  0  0
    4.8853    5.0672   12.3879 O   0  0  0  0  0  0  0  0  0  0  0  0
    5.6926    8.6133   12.1523 C   0  0  2  0  0  0  0  0  0  0  0  0
    6.7934    9.5163   12.4071 O   0  0  0  0  0  0  0  0  0  0  0  0
    4.4641    9.0413   12.9505 C   0  0  0  0  0  0  0  0  0  0  0  0
    4.3254    6.6187   10.7944 N   0  0  0  0  0  0  0  0  0  0  0  0
    2.9385    6.1859   10.6450 C   0  0  0  0  0  0  0  0  0  0  0  0
    2.5954    5.1361   11.7003 C   0  0  0  0  0  0  0  0  0  0  0  0
    1.5613    4.5009   11.7882 O   0  0  0  0  0  0  0  0  0  0  0  0
    3.5540    4.9824   12.6497 O   0  0  0  0  0  0  0  0  0  0  0  0
   18.0108   12.4871    5.1585 H   0  0  0  0  0  0  0  0  0  0  0  0
  2  1  1  6
  2  3  1  0
  2  5  1  0
  3  4  2  0
  3 10  1  0
  5  6  1  0
  6  7  1  0
  7  8  1  0
  8  9  1  0
 10 11  1  0
 11 12  1  0
 11 14  1  1
 12 13  2  0
 12 19  1  0
 14 15  1  0
 15 16  1  0
 16 17  2  0
 16 18  1  0
 20 19  1  1
 20 21  1  0
 20 23  1  0
 21 22  2  0
 21 26  1  0
 23 24  1  0
 23 25  1  6
 26 27  1  0
 27 28  1  0
 27 30  1  1
 28 29  2  0
 28 31  1  0
 31 32  1  0
 32 33  1  0
 32 35  1  6
 33 34  2  0
 33 42  1  0
 35 36  1  0
 36 37  1  0
 37 38  1  0
 38 39  1  0
 39 40  2  0
 39 41  1  0
 42 43  1  0
 43 44  1  6
 43 49  1  0
 44 45  1  0
 45 46  1  0
 46 47  1  0
 47 48  1  0
 48 51  1  6
 48 52  1  0
 48 53  1  0
 49 50  2  0
 49 54  1  0
 54 55  1  0
 55 56  1  0
 55 58  1  6
 56 57  2  0
 56 60  1  0
 58 59  1  0
 61 60  1  6
 61 62  1  0
 61 64  1  0
 62 63  2  0
 62 67  1  0
 64 65  1  0
 64 66  1  1
 67 68  1  0
 68 69  1  0
 69 70  2  0
 69 71  1  0
 40 72  1  0
M  CHG  3   1   1   9   1  48   1
M  END
$$$$
