
     RDKit          3D

 72 71  0  0  0  0  0  0  0  0999 V2000
   20.3608   21.3122   15.2381 N   0  0  0  0  0  4  0  0  0  0  0  0
   21.6030   21.6259   14.4254 C   0  0  2  0  0  0  0  0  0  0  0  0
   22.0914   20.3497   13.6865 C   0  0  0  0  0  0  0  0  0  0  0  0
   22.5850   19.3920   14.2786 O   0  0  0  0  0  0  0  0  0  0  0  0
   22.6702   22.1678   15.4071 C   0  0  0  0  0  0  0  0  0  0  0  0
   24.0493   22.3944   14.7601 C   0  0  0  0  0  0  0  0  0  0  0  0
   24.2479   23.7647   14.0902 C   0  0  0  0  0  0  0  0  0  0  0  0
   25.7126   24.1841   13.9499 C   0  0  0  0  0  0  0  0  0  0  0  0
   25.8185   25.4731   13.2328 N   0  0  0  0  0  4  0  0  0  0  0  0
   21.9114   20.3575   12.3197 N   0  0  0  0  0  0  0  0  0  0  0  0
   22.3840   19.2719   11.4599 C   0  0  2  0  0  0  0  0  0  0  0  0
   21.6372   17.9582   11.8131 C   0  0  0  0  0  0  0  0  0  0  0  0
   22.2274   16.9184   12.1265 O   0  0  0  0  0  0  0  0  0  0  0  0
   23.9182   19.1153   11.4165 C   0  0  0  0  0  0  0  0  0  0  0  0
   24.7186   20.3106   10.8787 C   0  0  0  0  0  0  0  0  0  0  0  0
   24.5803   20.5452    9.3828 C   0  0  0  0  0  0  0  0  0  0  0  0
   24.2322   19.6784    8.5860 O   0  0  0  0  0  0  0  0  0  0  0  0
   24.7654   21.8380    8.9889 N   0  0  0  0  0  0  0  0  0  0  0  0
   20.2697   18.0469   11.8224 N   0  0  0  0  0  0  0  0  0  0  0  0
   19.4007   16.9199   12.1605 C   0  0  2  0  0  0  0  0  0  0  0  0
   18.7396   16.4698   10.8314 C   0  0  0  0  0  0  0  0  0  0  0  0
   18.7717   17.1892    9.8321 O   0  0  0  0  0  0  0  0  0  0  0  0
   18.3445   17.2679   13.2348 C   0  0  2  0  0  0  0  0  0  0  0  0
   18.8734   18.1837   14.1886 O   0  0  0  0  0  0  0  0  0  0  0  0
   17.7945   16.0524   13.9711 C   0  0  0  0  0  0  0  0  0  0  0  0
   18.2073   15.2022   10.8290 N   0  0  0  0  0  0  0  0  0  0  0  0
   17.5389   14.5993    9.6605 C   0  0  2  0  0  0  0  0  0  0  0  0
   16.2768   13.9510   10.2514 C   0  0  0  0  0  0  0  0  0  0  0  0
   15.3001   13.6386    9.5706 O   0  0  0  0  0  0  0  0  0  0  0  0
   18.3483   13.5852    8.8677 C   0  0  0  0  0  0  0  0  0  0  0  0
   16.2244   13.9274   11.6292 N   0  0  0  0  0  0  0  0  0  0  0  0
   15.0865   13.3637   12.3667 C   0  0  2  0  0  0  0  0  0  0  0  0
   13.9491   12.9929   11.3724 C   0  0  0  0  0  0  0  0  0  0  0  0
   13.5709   13.7170   10.4568 O   0  0  0  0  0  0  0  0  0  0  0  0
   14.6283   14.3893   13.4099 C   0  0  0  0  0  0  0  0  0  0  0  0
   15.7601   14.9680   14.2559 C   0  0  0  0  0  0  0  0  0  0  0  0
   15.2764   16.0040   15.2755 C   0  0  0  0  0  0  0  0  0  0  0  0
   16.2675   16.3297   16.3031 N   0  0  0  0  0  0  0  0  0  0  0  0
   17.5336   16.6983   15.9866 C   0  0  0  0  0  0  0  0  0  0  0  0
   18.2522   17.5106   16.6760 N   0  0  0  0  0  0  0  0  0  0  0  0
   17.9558   16.1539   14.8268 N   0  0  0  0  0  0  0  0  0  0  0  0
   13.3257   11.7816   11.6198 N   0  0  0  0  0  0  0  0  0  0  0  0
   12.3124   11.2068   10.7321 C   0  0  1  0  0  0  0  0  0  0  0  0
   12.5451    9.7246   10.3699 C   0  0  0  0  0  0  0  0  0  0  0  0
   11.5351    9.0824    9.3992 C   0  0  0  0  0  0  0  0  0  0  0  0
   11.9443    7.6754    8.9609 C   0  0  0  0  0  0  0  0  0  0  0  0
   11.7932    6.5731   10.0219 C   0  0  0  0  0  0  0  0  0  0  0  0
   11.6916    5.1215    9.5125 N   0  0  2  0  0  4  0  0  0  0  0  0
   10.8342   11.5333   11.1050 C   0  0  0  0  0  0  0  0  0  0  0  0
   10.4045   11.4492   12.2552 O   0  0  0  0  0  0  0  0  0  0  0  0
   11.1943    4.1733   10.6063 C   0  0  0  0  0  0  0  0  0  0  0  0
   13.1131    4.6638    9.1359 C   0  0  0  0  0  0  0  0  0  0  0  0
   10.8193    4.9819    8.2686 C   0  0  0  0  0  0  0  0  0  0  0  0
    9.9881   11.8153   10.0388 N   0  0  0  0  0  0  0  0  0  0  0  0
    8.5639   12.0657   10.3162 C   0  0  2  0  0  0  0  0  0  0  0  0
    7.6608   10.8286   10.1378 C   0  0  0  0  0  0  0  0  0  0  0  0
    8.0251    9.7000   10.4878 O   0  0  0  0  0  0  0  0  0  0  0  0
    8.0216   13.2367    9.4757 C   0  0  0  0  0  0  0  0  0  0  0  0
    6.7769   13.7338    9.9735 O   0  0  0  0  0  0  0  0  0  0  0  0
    6.3580   11.0434    9.7078 N   0  0  0  0  0  0  0  0  0  0  0  0
    5.2780   10.8406   10.6920 C   0  0  2  0  0  0  0  0  0  0  0  0
    5.0660   11.9681   11.7041 C   0  0  0  0  0  0  0  0  0  0  0  0
    5.3846   13.1301   11.4500 O   0  0  0  0  0  0  0  0  0  0  0  0
    5.4015    9.4733   11.4277 C   0  0  2  0  0  0  0  0  0  0  0  0
    6.3917    8.6360   10.7871 O   0  0  0  0  0  0  0  0  0  0  0  0
    4.0880    8.7116   11.5831 C   0  0  0  0  0  0  0  0  0  0  0  0
    4.5990   11.5687   12.9347 N   0  0  0  0  0  0  0  0  0  0  0  0
    3.4737   10.6393   12.9884 C   0  0  0  0  0  0  0  0  0  0  0  0
    2.2508   11.3241   13.5959 C   0  0  0  0  0  0  0  0  0  0  0  0
    2.0544   11.5556   14.7742 O   0  0  0  0  0  0  0  0  0  0  0  0
    1.2872   11.6270   12.6883 O   0  0  0  0  0  0  0  0  0  0  0  0
   17.6631   18.0006   17.3521 H   0  0  0  0  0  0  0  0  0  0  0  0
  2  1  1  1
  2  3  1  0
  2  5  1  0
  3  4  2  0
  3 10  1  0
  5  6  1  0
  6  7  1  0
  7  8  1  0
  8  9  1  0
 10 11  1  0
 11 12  1  0
 11 14  1  1
 12 13  2  0
 12 19  1  0
 14 15  1  0
 15 16  1  0
 16 17  2  0
 16 18  1  0
 20 19  1  6
 20 21  1  0
 20 23  1  0
 21 22  2  0
 21 26  1  0
 23 24  1  0
 23 25  1  1
 26 27  1  0
 27 28  1  0
 27 30  1  1
 28 29  2  0
 28 31  1  0
 31 32  1  0
 32 33  1  0
 32 35  1  1
 33 34  2  0
 33 42  1  0
 35 36  1  0
 36 37  1  0
 37 38  1  0
 38 39  1  0
 39 40  2  0
 39 41  1  0
 42 43  1  0
 43 44  1  1
 43 49  1  0
 44 45  1  0
 45 46  1  0
 46 47  1  0
 47 48  1  0
 48 51  1  1
 48 52  1  0
 48 53  1  0
 49 50  2  0
 49 54  1  0
 54 55  1  0
 55 56  1  0
 55 58  1  6
 56 57  2  0
 56 60  1  0
 58 59  1  0
 61 60  1  1
 61 62  1  0
 61 64  1  0
 62 63  2  0
 62 67  1  0
 64 65  1  0
 64 66  1  6
 67 68  1  0
 68 69  1  0
 69 70  2  0
 69 71  1  0
 40 72  1  0
M  CHG  3   1   1   9   1  48   1
M  END
$$$$
