
     RDKit          3D

 72 71  0  0  0  0  0  0  0  0999 V2000
   21.3150   22.1298   18.3544 N   0  0  0  0  0  4  0  0  0  0  0  0
   20.9813   22.3531   16.8913 C   0  0  2  0  0  0  0  0  0  0  0  0
   20.7783   20.9882   16.1779 C   0  0  0  0  0  0  0  0  0  0  0  0
   20.3728   20.9018   15.0205 O   0  0  0  0  0  0  0  0  0  0  0  0
   22.1479   23.1599   16.2714 C   0  0  0  0  0  0  0  0  0  0  0  0
   22.6112   24.3453   17.1387 C   0  0  0  0  0  0  0  0  0  0  0  0
   23.4692   25.3975   16.4158 C   0  0  0  0  0  0  0  0  0  0  0  0
   22.8288   26.7854   16.3484 C   0  0  0  0  0  0  0  0  0  0  0  0
   23.7338   27.7442   15.6786 N   0  0  0  0  0  4  0  0  0  0  0  0
   21.1068   19.8791   16.9279 N   0  0  0  0  0  0  0  0  0  0  0  0
   20.9253   18.5145   16.4318 C   0  0  2  0  0  0  0  0  0  0  0  0
   19.5502   18.3911   15.7233 C   0  0  0  0  0  0  0  0  0  0  0  0
   18.8843   19.3750   15.3823 O   0  0  0  0  0  0  0  0  0  0  0  0
   21.1762   17.4151   17.4847 C   0  0  0  0  0  0  0  0  0  0  0  0
   22.6132   17.2765   18.0082 C   0  0  0  0  0  0  0  0  0  0  0  0
   23.6881   17.3356   16.9344 C   0  0  0  0  0  0  0  0  0  0  0  0
   23.7890   18.2491   16.1202 O   0  0  0  0  0  0  0  0  0  0  0  0
   24.6201   16.3420   17.0052 N   0  0  0  0  0  0  0  0  0  0  0  0
   19.1525   17.1114   15.4361 N   0  0  0  0  0  0  0  0  0  0  0  0
   18.1425   16.7991   14.4253 C   0  0  2  0  0  0  0  0  0  0  0  0
   17.9815   15.2563   14.4373 C   0  0  0  0  0  0  0  0  0  0  0  0
   18.7856   14.5398   15.0349 O   0  0  0  0  0  0  0  0  0  0  0  0
   18.5086   17.3243   13.0179 C   0  0  2  0  0  0  0  0  0  0  0  0
   19.5888   16.5799   12.4636 O   0  0  0  0  0  0  0  0  0  0  0  0
   18.8651   18.8057   12.9892 C   0  0  0  0  0  0  0  0  0  0  0  0
   16.8530   14.7693   13.8214 N   0  0  0  0  0  0  0  0  0  0  0  0
   16.0513   13.6507   14.3520 C   0  0  2  0  0  0  0  0  0  0  0  0
   14.8868   13.5266   13.3565 C   0  0  0  0  0  0  0  0  0  0  0  0
   13.9577   14.3323   13.3052 O   0  0  0  0  0  0  0  0  0  0  0  0
   15.5344   13.8045   15.7737 C   0  0  0  0  0  0  0  0  0  0  0  0
   14.8417   12.3385   12.6578 N   0  0  0  0  0  0  0  0  0  0  0  0
   13.8615   12.0846   11.5942 C   0  0  2  0  0  0  0  0  0  0  0  0
   12.6674   11.2677   12.1659 C   0  0  0  0  0  0  0  0  0  0  0  0
   12.7294   10.0824   12.4771 O   0  0  0  0  0  0  0  0  0  0  0  0
   14.5673   11.3489   10.4493 C   0  0  0  0  0  0  0  0  0  0  0  0
   15.7730   12.0921    9.8788 C   0  0  0  0  0  0  0  0  0  0  0  0
   16.4607   11.3328    8.7398 C   0  0  0  0  0  0  0  0  0  0  0  0
   17.5645   12.0690    8.1203 N   0  0  0  0  0  0  0  0  0  0  0  0
   17.6221   12.2824    6.7823 C   0  0  0  0  0  0  0  0  0  0  0  0
   18.3438   11.6031    5.9644 N   0  0  0  0  0  0  0  0  0  0  0  0
   16.8679   13.3309    6.3932 N   0  0  0  0  0  0  0  0  0  0  0  0
   11.4721   11.9609   12.2553 N   0  0  0  0  0  0  0  0  0  0  0  0
   10.1622   11.3078   12.2030 C   0  0  1  0  0  0  0  0  0  0  0  0
    8.9828   12.2609   11.9152 C   0  0  0  0  0  0  0  0  0  0  0  0
    7.9297   12.4152   13.0297 C   0  0  0  0  0  0  0  0  0  0  0  0
    6.9031   13.5086   12.7299 C   0  0  0  0  0  0  0  0  0  0  0  0
    6.5517   14.4371   13.9037 C   0  0  0  0  0  0  0  0  0  0  0  0
    5.7488   15.7107   13.5717 N   0  0  2  0  0  4  0  0  0  0  0  0
   10.1080    9.9828   11.3832 C   0  0  0  0  0  0  0  0  0  0  0  0
   10.6021    9.8744   10.2612 O   0  0  0  0  0  0  0  0  0  0  0  0
    4.5080   15.3929   12.7336 C   0  0  0  0  0  0  0  0  0  0  0  0
    6.6511   16.6140   12.7105 C   0  0  0  0  0  0  0  0  0  0  0  0
    5.3487   16.5074   14.8097 C   0  0  0  0  0  0  0  0  0  0  0  0
    9.3620    8.9528   11.9443 N   0  0  0  0  0  0  0  0  0  0  0  0
    9.0673    7.7672   11.1224 C   0  0  2  0  0  0  0  0  0  0  0  0
    7.9742    7.9944   10.0589 C   0  0  0  0  0  0  0  0  0  0  0  0
    7.6386    7.1042    9.2688 O   0  0  0  0  0  0  0  0  0  0  0  0
    8.7059    6.5504   11.9945 C   0  0  0  0  0  0  0  0  0  0  0  0
    7.4252    6.6866   12.6155 O   0  0  0  0  0  0  0  0  0  0  0  0
    7.2666    9.1880   10.1125 N   0  0  0  0  0  0  0  0  0  0  0  0
    6.1200    9.3374    9.1964 C   0  0  2  0  0  0  0  0  0  0  0  0
    6.3578    8.9214    7.7435 C   0  0  0  0  0  0  0  0  0  0  0  0
    7.3398    9.3148    7.1134 O   0  0  0  0  0  0  0  0  0  0  0  0
    5.5041   10.7669    9.2530 C   0  0  2  0  0  0  0  0  0  0  0  0
    6.2828   11.6906    8.4577 O   0  0  0  0  0  0  0  0  0  0  0  0
    5.3060   11.3209   10.6613 C   0  0  0  0  0  0  0  0  0  0  0  0
    5.3512    8.1742    7.1772 N   0  0  0  0  0  0  0  0  0  0  0  0
    4.2702    8.8684    6.4827 C   0  0  0  0  0  0  0  0  0  0  0  0
    4.8112    9.5900    5.2497 C   0  0  0  0  0  0  0  0  0  0  0  0
    5.8740    9.3868    4.6932 O   0  0  0  0  0  0  0  0  0  0  0  0
    4.0107   10.5948    4.8098 O   0  0  0  0  0  0  0  0  0  0  0  0
   18.8277   10.8588    6.4705 H   0  0  0  0  0  0  0  0  0  0  0  0
  2  1  1  1
  2  3  1  0
  2  5  1  0
  3  4  2  0
  3 10  1  0
  5  6  1  0
  6  7  1  0
  7  8  1  0
  8  9  1  0
 10 11  1  0
 11 12  1  0
 11 14  1  1
 12 13  2  0
 12 19  1  0
 14 15  1  0
 15 16  1  0
 16 17  2  0
 16 18  1  0
 20 19  1  1
 20 21  1  0
 20 23  1  0
 21 22  2  0
 21 26  1  0
 23 24  1  0
 23 25  1  1
 26 27  1  0
 27 28  1  0
 27 30  1  1
 28 29  2  0
 28 31  1  0
 31 32  1  0
 32 33  1  0
 32 35  1  6
 33 34  2  0
 33 42  1  0
 35 36  1  0
 36 37  1  0
 37 38  1  0
 38 39  1  0
 39 40  2  0
 39 41  1  0
 42 43  1  0
 43 44  1  6
 43 49  1  0
 44 45  1  0
 45 46  1  0
 46 47  1  0
 47 48  1  0
 48 51  1  6
 48 52  1  0
 48 53  1  0
 49 50  2  0
 49 54  1  0
 54 55  1  0
 55 56  1  0
 55 58  1  1
 56 57  2  0
 56 60  1  0
 58 59  1  0
 61 60  1  1
 61 62  1  0
 61 64  1  0
 62 63  2  0
 62 67  1  0
 64 65  1  0
 64 66  1  1
 67 68  1  0
 68 69  1  0
 69 70  2  0
 69 71  1  0
 40 72  1  0
M  CHG  3   1   1   9   1  48   1
M  END
$$$$
