
     RDKit          3D

 72 71  0  0  0  0  0  0  0  0999 V2000
   22.2836   22.7950   19.0409 N   0  0  0  0  0  4  0  0  0  0  0  0
   23.7538   22.4723   19.2308 C   0  0  2  0  0  0  0  0  0  0  0  0
   24.1507   21.2595   18.3447 C   0  0  0  0  0  0  0  0  0  0  0  0
   25.2846   20.7846   18.3449 O   0  0  0  0  0  0  0  0  0  0  0  0
   23.9705   22.1823   20.7358 C   0  0  0  0  0  0  0  0  0  0  0  0
   25.2972   22.7356   21.2888 C   0  0  0  0  0  0  0  0  0  0  0  0
   26.4689   22.7612   20.2927 C   0  0  0  0  0  0  0  0  0  0  0  0
   27.8195   22.3900   20.9085 C   0  0  0  0  0  0  0  0  0  0  0  0
   28.0526   20.9329   20.8123 N   0  0  0  0  0  4  0  0  0  0  0  0
   23.1338   20.7383   17.5734 N   0  0  0  0  0  0  0  0  0  0  0  0
   23.3128   20.4063   16.1595 C   0  0  2  0  0  0  0  0  0  0  0  0
   21.9402   20.0628   15.5222 C   0  0  0  0  0  0  0  0  0  0  0  0
   21.8258   19.6651   14.3576 O   0  0  0  0  0  0  0  0  0  0  0  0
   24.4007   19.3469   15.8866 C   0  0  0  0  0  0  0  0  0  0  0  0
   25.7819   19.8694   15.4652 C   0  0  0  0  0  0  0  0  0  0  0  0
   25.7812   21.2819   14.9023 C   0  0  0  0  0  0  0  0  0  0  0  0
   25.1932   21.6059   13.8743 O   0  0  0  0  0  0  0  0  0  0  0  0
   26.3979   22.2098   15.6894 N   0  0  0  0  0  0  0  0  0  0  0  0
   20.8629   20.1636   16.3633 N   0  0  0  0  0  0  0  0  0  0  0  0
   19.4822   19.9876   15.9137 C   0  0  2  0  0  0  0  0  0  0  0  0
   19.3403   18.4916   15.5285 C   0  0  0  0  0  0  0  0  0  0  0  0
   20.2243   17.9138   14.8947 O   0  0  0  0  0  0  0  0  0  0  0  0
   19.1023   20.9185   14.7389 C   0  0  2  0  0  0  0  0  0  0  0  0
   19.2687   20.2538   13.4905 O   0  0  0  0  0  0  0  0  0  0  0  0
   19.8886   22.2235   14.7111 C   0  0  0  0  0  0  0  0  0  0  0  0
   18.2228   17.8541   16.0131 N   0  0  0  0  0  0  0  0  0  0  0  0
   17.8955   16.4456   15.7223 C   0  0  2  0  0  0  0  0  0  0  0  0
   16.8710   16.5332   14.5799 C   0  0  0  0  0  0  0  0  0  0  0  0
   16.3741   17.5941   14.2025 O   0  0  0  0  0  0  0  0  0  0  0  0
   17.3471   15.6264   16.8800 C   0  0  0  0  0  0  0  0  0  0  0  0
   16.3870   15.3201   14.1371 N   0  0  0  0  0  0  0  0  0  0  0  0
   15.3235   15.2143   13.1299 C   0  0  2  0  0  0  0  0  0  0  0  0
   14.8875   13.7284   12.9821 C   0  0  0  0  0  0  0  0  0  0  0  0
   15.1927   12.8389   13.7703 O   0  0  0  0  0  0  0  0  0  0  0  0
   15.8448   15.7959   11.8108 C   0  0  0  0  0  0  0  0  0  0  0  0
   17.2669   16.3465   11.8897 C   0  0  0  0  0  0  0  0  0  0  0  0
   17.7866   16.8583   10.5426 C   0  0  0  0  0  0  0  0  0  0  0  0
   18.3975   18.1873   10.6110 N   0  0  0  0  0  0  0  0  0  0  0  0
   19.5767   18.4025   11.2451 C   0  0  0  0  0  0  0  0  0  0  0  0
   19.7181   19.1208   12.3013 N   0  0  0  0  0  0  0  0  0  0  0  0
   20.6160   17.8149   10.6172 N   0  0  0  0  0  0  0  0  0  0  0  0
   14.1567   13.4425   11.8413 N   0  0  0  0  0  0  0  0  0  0  0  0
   12.8292   12.8244   11.8751 C   0  0  1  0  0  0  0  0  0  0  0  0
   11.9104   13.3424   13.0019 C   0  0  0  0  0  0  0  0  0  0  0  0
   10.9071   14.4492   12.6232 C   0  0  0  0  0  0  0  0  0  0  0  0
    9.5360   14.2559   13.2728 C   0  0  0  0  0  0  0  0  0  0  0  0
    9.2537   15.1221   14.5111 C   0  0  0  0  0  0  0  0  0  0  0  0
    7.8164   15.0983   15.0682 N   0  0  2  0  0  4  0  0  0  0  0  0
   12.1145   12.6994   10.4951 C   0  0  0  0  0  0  0  0  0  0  0  0
   12.1798   13.5733    9.6310 O   0  0  0  0  0  0  0  0  0  0  0  0
    7.4239   13.7019   15.5571 C   0  0  0  0  0  0  0  0  0  0  0  0
    6.8658   15.4499   13.9087 C   0  0  0  0  0  0  0  0  0  0  0  0
    7.5859   16.1202   16.1773 C   0  0  0  0  0  0  0  0  0  0  0  0
   11.2949   11.5882   10.3353 N   0  0  0  0  0  0  0  0  0  0  0  0
   11.9221   10.2794   10.0874 C   0  0  2  0  0  0  0  0  0  0  0  0
   10.9172    9.1247    9.9020 C   0  0  0  0  0  0  0  0  0  0  0  0
   11.2577    7.9408   10.0102 O   0  0  0  0  0  0  0  0  0  0  0  0
   12.9361    9.9206   11.1896 C   0  0  0  0  0  0  0  0  0  0  0  0
   12.3851    9.0379   12.1701 O   0  0  0  0  0  0  0  0  0  0  0  0
    9.5771    9.4588    9.7579 N   0  0  0  0  0  0  0  0  0  0  0  0
    9.0146    9.4292    8.3945 C   0  0  2  0  0  0  0  0  0  0  0  0
    9.4124    8.2345    7.5256 C   0  0  0  0  0  0  0  0  0  0  0  0
   10.5928    7.9715    7.2935 O   0  0  0  0  0  0  0  0  0  0  0  0
    9.2646   10.7606    7.6258 C   0  0  2  0  0  0  0  0  0  0  0  0
    8.5108   10.7874    6.3916 O   0  0  0  0  0  0  0  0  0  0  0  0
   10.7334   11.0737    7.3532 C   0  0  0  0  0  0  0  0  0  0  0  0
    8.3638    7.5556    6.9498 N   0  0  0  0  0  0  0  0  0  0  0  0
    7.6429    6.5707    7.7519 C   0  0  0  0  0  0  0  0  0  0  0  0
    6.1357    6.7456    7.5749 C   0  0  0  0  0  0  0  0  0  0  0  0
    5.2573    6.1453    8.1652 O   0  0  0  0  0  0  0  0  0  0  0  0
    5.7991    7.6294    6.6005 O   0  0  0  0  0  0  0  0  0  0  0  0
   19.1616   19.9733   12.2134 H   0  0  0  0  0  0  0  0  0  0  0  0
  2  1  1  1
  2  3  1  0
  2  5  1  0
  3  4  2  0
  3 10  1  0
  5  6  1  0
  6  7  1  0
  7  8  1  0
  8  9  1  0
 10 11  1  0
 11 12  1  0
 11 14  1  1
 12 13  2  0
 12 19  1  0
 14 15  1  0
 15 16  1  0
 16 17  2  0
 16 18  1  0
 20 19  1  6
 20 21  1  0
 20 23  1  0
 21 22  2  0
 21 26  1  0
 23 24  1  0
 23 25  1  6
 26 27  1  0
 27 28  1  0
 27 30  1  1
 28 29  2  0
 28 31  1  0
 31 32  1  0
 32 33  1  0
 32 35  1  6
 33 34  2  0
 33 42  1  0
 35 36  1  0
 36 37  1  0
 37 38  1  0
 38 39  1  0
 39 40  2  0
 39 41  1  0
 42 43  1  0
 43 44  1  1
 43 49  1  0
 44 45  1  0
 45 46  1  0
 46 47  1  0
 47 48  1  0
 48 51  1  1
 48 52  1  0
 48 53  1  0
 49 50  2  0
 49 54  1  0
 54 55  1  0
 55 56  1  0
 55 58  1  1
 56 57  2  0
 56 60  1  0
 58 59  1  0
 61 60  1  1
 61 62  1  0
 61 64  1  0
 62 63  2  0
 62 67  1  0
 64 65  1  0
 64 66  1  6
 67 68  1  0
 68 69  1  0
 69 70  2  0
 69 71  1  0
 40 72  1  0
M  CHG  3   1   1   9   1  48   1
M  END
$$$$
