
     RDKit          3D

 72 71  0  0  0  0  0  0  0  0999 V2000
   21.7822   22.2737   14.8256 N   0  0  0  0  0  4  0  0  0  0  0  0
   21.8511   22.0479   16.3243 C   0  0  2  0  0  0  0  0  0  0  0  0
   21.6548   20.5404   16.6444 C   0  0  0  0  0  0  0  0  0  0  0  0
   22.1766   19.9984   17.6166 O   0  0  0  0  0  0  0  0  0  0  0  0
   20.7511   22.9230   16.9725 C   0  0  0  0  0  0  0  0  0  0  0  0
   20.5901   24.3054   16.3128 C   0  0  0  0  0  0  0  0  0  0  0  0
   20.5938   25.5028   17.2781 C   0  0  0  0  0  0  0  0  0  0  0  0
   21.9858   25.9005   17.7736 C   0  0  0  0  0  0  0  0  0  0  0  0
   21.8953   26.6001   19.0733 N   0  0  0  0  0  4  0  0  0  0  0  0
   20.8344   19.8570   15.7722 N   0  0  0  0  0  0  0  0  0  0  0  0
   20.1534   18.6165   16.1446 C   0  0  2  0  0  0  0  0  0  0  0  0
   18.7426   18.5770   15.4995 C   0  0  0  0  0  0  0  0  0  0  0  0
   18.1178   19.5999   15.1978 O   0  0  0  0  0  0  0  0  0  0  0  0
   20.1463   18.3235   17.6593 C   0  0  0  0  0  0  0  0  0  0  0  0
   21.4152   17.6865   18.2445 C   0  0  0  0  0  0  0  0  0  0  0  0
   22.6783   18.5154   18.0730 C   0  0  0  0  0  0  0  0  0  0  0  0
   23.0225   19.4023   18.8492 O   0  0  0  0  0  0  0  0  0  0  0  0
   23.4789   18.1274   17.0388 N   0  0  0  0  0  0  0  0  0  0  0  0
   18.2614   17.3245   15.2208 N   0  0  0  0  0  0  0  0  0  0  0  0
   18.0997   16.8185   13.8579 C   0  0  2  0  0  0  0  0  0  0  0  0
   17.6333   15.3455   13.9962 C   0  0  0  0  0  0  0  0  0  0  0  0
   18.2089   14.5672   14.7578 O   0  0  0  0  0  0  0  0  0  0  0  0
   19.3880   16.9325   13.0105 C   0  0  2  0  0  0  0  0  0  0  0  0
   20.0408   18.1764   13.2445 O   0  0  0  0  0  0  0  0  0  0  0  0
   19.1536   16.7731   11.5131 C   0  0  0  0  0  0  0  0  0  0  0  0
   16.5030   15.0087   13.2897 N   0  0  0  0  0  0  0  0  0  0  0  0
   15.6558   13.8447   13.6106 C   0  0  2  0  0  0  0  0  0  0  0  0
   14.7431   13.7027   12.3822 C   0  0  0  0  0  0  0  0  0  0  0  0
   14.6250   14.5805   11.5276 O   0  0  0  0  0  0  0  0  0  0  0  0
   14.8351   13.9379   14.8873 C   0  0  0  0  0  0  0  0  0  0  0  0
   13.9045   12.6081   12.4029 N   0  0  0  0  0  0  0  0  0  0  0  0
   13.1305   12.1840   11.2292 C   0  0  2  0  0  0  0  0  0  0  0  0
   11.6748   11.8410   11.6572 C   0  0  0  0  0  0  0  0  0  0  0  0
   11.3878   11.0859   12.5809 O   0  0  0  0  0  0  0  0  0  0  0  0
   13.8397   10.9862   10.5870 C   0  0  0  0  0  0  0  0  0  0  0  0
   15.0827   11.3553    9.7805 C   0  0  0  0  0  0  0  0  0  0  0  0
   15.7877   10.1372    9.1756 C   0  0  0  0  0  0  0  0  0  0  0  0
   16.2849   10.3566    7.8159 N   0  0  0  0  0  0  0  0  0  0  0  0
   17.3308   11.1807    7.5594 C   0  0  0  0  0  0  0  0  0  0  0  0
   18.5159   11.0263    8.0317 N   0  0  0  0  0  0  0  0  0  0  0  0
   16.9854   12.2273    6.7815 N   0  0  0  0  0  0  0  0  0  0  0  0
   10.6841   12.4105   10.8754 N   0  0  0  0  0  0  0  0  0  0  0  0
    9.2545   12.2360   11.1421 C   0  0  1  0  0  0  0  0  0  0  0  0
    8.4034   13.5054   10.9266 C   0  0  0  0  0  0  0  0  0  0  0  0
    7.2916   13.7769   11.9586 C   0  0  0  0  0  0  0  0  0  0  0  0
    7.5497   15.0318   12.7939 C   0  0  0  0  0  0  0  0  0  0  0  0
    6.4472   15.4065   13.7976 C   0  0  0  0  0  0  0  0  0  0  0  0
    5.8761   16.8358   13.7077 N   0  0  2  0  0  4  0  0  0  0  0  0
    8.6150   10.9467   10.5424 C   0  0  0  0  0  0  0  0  0  0  0  0
    8.0599   10.9290    9.4441 O   0  0  0  0  0  0  0  0  0  0  0  0
    6.2830   17.5248   12.4029 C   0  0  0  0  0  0  0  0  0  0  0  0
    6.4946   17.6533   14.8570 C   0  0  0  0  0  0  0  0  0  0  0  0
    4.3601   16.8874   13.8710 C   0  0  0  0  0  0  0  0  0  0  0  0
    8.6022    9.8330   11.3740 N   0  0  0  0  0  0  0  0  0  0  0  0
    7.9625    8.5986   10.8893 C   0  0  2  0  0  0  0  0  0  0  0  0
    7.2761    7.7698   11.9936 C   0  0  0  0  0  0  0  0  0  0  0  0
    7.8951    7.3651   12.9846 O   0  0  0  0  0  0  0  0  0  0  0  0
    8.9555    7.7153   10.1111 C   0  0  0  0  0  0  0  0  0  0  0  0
   10.1860    8.3901    9.8375 O   0  0  0  0  0  0  0  0  0  0  0  0
    5.8979    7.6180   11.9172 N   0  0  0  0  0  0  0  0  0  0  0  0
    5.3759    6.2494   11.7421 C   0  0  2  0  0  0  0  0  0  0  0  0
    6.1111    5.3708   10.7281 C   0  0  0  0  0  0  0  0  0  0  0  0
    6.7241    5.8586    9.7781 O   0  0  0  0  0  0  0  0  0  0  0  0
    3.8449    6.2357   11.4558 C   0  0  2  0  0  0  0  0  0  0  0  0
    3.2755    7.5499   11.6577 O   0  0  0  0  0  0  0  0  0  0  0  0
    3.0577    5.1932   12.2451 C   0  0  0  0  0  0  0  0  0  0  0  0
    5.9459    4.0162   10.9002 N   0  0  0  0  0  0  0  0  0  0  0  0
    6.5647    3.1078    9.9384 C   0  0  0  0  0  0  0  0  0  0  0  0
    7.7509    3.7873    9.2568 C   0  0  0  0  0  0  0  0  0  0  0  0
    8.9159    3.7434    9.6053 O   0  0  0  0  0  0  0  0  0  0  0  0
    7.4024    4.5580    8.1945 O   0  0  0  0  0  0  0  0  0  0  0  0
   18.6919   10.0336    8.1990 H   0  0  0  0  0  0  0  0  0  0  0  0
  2  1  1  6
  2  3  1  0
  2  5  1  0
  3  4  2  0
  3 10  1  0
  5  6  1  0
  6  7  1  0
  7  8  1  0
  8  9  1  0
 10 11  1  0
 11 12  1  0
 11 14  1  1
 12 13  2  0
 12 19  1  0
 14 15  1  0
 15 16  1  0
 16 17  2  0
 16 18  1  0
 20 19  1  1
 20 21  1  0
 20 23  1  0
 21 22  2  0
 21 26  1  0
 23 24  1  0
 23 25  1  6
 26 27  1  0
 27 28  1  0
 27 30  1  1
 28 29  2  0
 28 31  1  0
 31 32  1  0
 32 33  1  0
 32 35  1  1
 33 34  2  0
 33 42  1  0
 35 36  1  0
 36 37  1  0
 37 38  1  0
 38 39  1  0
 39 40  2  0
 39 41  1  0
 42 43  1  0
 43 44  1  6
 43 49  1  0
 44 45  1  0
 45 46  1  0
 46 47  1  0
 47 48  1  0
 48 51  1  6
 48 52  1  0
 48 53  1  0
 49 50  2  0
 49 54  1  0
 54 55  1  0
 55 56  1  0
 55 58  1  1
 56 57  2  0
 56 60  1  0
 58 59  1  0
 61 60  1  6
 61 62  1  0
 61 64  1  0
 62 63  2  0
 62 67  1  0
 64 65  1  0
 64 66  1  1
 67 68  1  0
 68 69  1  0
 69 70  2  0
 69 71  1  0
 40 72  1  0
M  CHG  3   1   1   9   1  48   1
M  END
$$$$
