
     RDKit          3D

 72 71  0  0  0  0  0  0  0  0999 V2000
   22.4677   20.5315   15.8030 N   0  0  0  0  0  4  0  0  0  0  0  0
   21.7274   19.3318   15.2423 C   0  0  2  0  0  0  0  0  0  0  0  0
   20.3625   19.7784   14.6501 C   0  0  0  0  0  0  0  0  0  0  0  0
   19.3857   19.0332   14.6072 O   0  0  0  0  0  0  0  0  0  0  0  0
   21.5503   18.3187   16.3992 C   0  0  0  0  0  0  0  0  0  0  0  0
   21.2978   18.9787   17.7677 C   0  0  0  0  0  0  0  0  0  0  0  0
   21.1663   18.0094   18.9547 C   0  0  0  0  0  0  0  0  0  0  0  0
   19.7656   17.9610   19.5685 C   0  0  0  0  0  0  0  0  0  0  0  0
   19.7199   16.9923   20.6850 N   0  0  0  0  0  4  0  0  0  0  0  0
   20.3171   21.0792   14.1956 N   0  0  0  0  0  0  0  0  0  0  0  0
   19.3513   21.5262   13.1913 C   0  0  2  0  0  0  0  0  0  0  0  0
   18.3627   20.3757   12.8637 C   0  0  0  0  0  0  0  0  0  0  0  0
   17.2557   20.5726   12.3506 O   0  0  0  0  0  0  0  0  0  0  0  0
   19.9847   22.1687   11.9399 C   0  0  0  0  0  0  0  0  0  0  0  0
   19.1070   23.1501   11.1492 C   0  0  0  0  0  0  0  0  0  0  0  0
   18.7132   22.6719    9.7606 C   0  0  0  0  0  0  0  0  0  0  0  0
   17.9623   23.2925    9.0133 O   0  0  0  0  0  0  0  0  0  0  0  0
   19.3491   21.5384    9.3462 N   0  0  0  0  0  0  0  0  0  0  0  0
   18.8298   19.1127   13.1184 N   0  0  0  0  0  0  0  0  0  0  0  0
   18.5365   17.9665   12.2582 C   0  0  2  0  0  0  0  0  0  0  0  0
   17.4194   17.1631   12.9743 C   0  0  0  0  0  0  0  0  0  0  0  0
   16.4952   17.7381   13.5506 O   0  0  0  0  0  0  0  0  0  0  0  0
   19.7769   17.0890   11.9712 C   0  0  2  0  0  0  0  0  0  0  0  0
   20.4781   16.7923   13.1747 O   0  0  0  0  0  0  0  0  0  0  0  0
   20.7492   17.7081   10.9743 C   0  0  0  0  0  0  0  0  0  0  0  0
   17.4899   15.7963   12.8434 N   0  0  0  0  0  0  0  0  0  0  0  0
   16.4340   14.8761   13.3057 C   0  0  2  0  0  0  0  0  0  0  0  0
   15.8878   14.2595   12.0081 C   0  0  0  0  0  0  0  0  0  0  0  0
   16.2352   14.6335   10.8882 O   0  0  0  0  0  0  0  0  0  0  0  0
   15.3122   15.4926   14.1265 C   0  0  0  0  0  0  0  0  0  0  0  0
   14.8263   13.3952   12.1755 N   0  0  0  0  0  0  0  0  0  0  0  0
   14.8618   12.0020   11.7129 C   0  0  2  0  0  0  0  0  0  0  0  0
   13.4657   11.5979   11.1584 C   0  0  0  0  0  0  0  0  0  0  0  0
   13.2911   10.7807   10.2599 O   0  0  0  0  0  0  0  0  0  0  0  0
   15.2963   11.1128   12.8836 C   0  0  0  0  0  0  0  0  0  0  0  0
   14.1460   10.3856   13.5761 C   0  0  0  0  0  0  0  0  0  0  0  0
   14.5233    8.9766   14.0442 C   0  0  0  0  0  0  0  0  0  0  0  0
   14.9857    8.9189   15.4324 N   0  0  0  0  0  0  0  0  0  0  0  0
   14.4187    9.6700   16.4087 C   0  0  0  0  0  0  0  0  0  0  0  0
   13.1709    9.6487   16.7155 N   0  0  0  0  0  0  0  0  0  0  0  0
   15.3037   10.4940   17.0066 N   0  0  0  0  0  0  0  0  0  0  0  0
   12.3948   12.2764   11.7153 N   0  0  0  0  0  0  0  0  0  0  0  0
   10.9983   11.9245   11.4489 C   0  0  1  0  0  0  0  0  0  0  0  0
   10.1188   13.1038   10.9821 C   0  0  0  0  0  0  0  0  0  0  0  0
    8.8456   13.3855   11.8034 C   0  0  0  0  0  0  0  0  0  0  0  0
    8.9384   14.6754   12.6199 C   0  0  0  0  0  0  0  0  0  0  0  0
    7.6828   15.0509   13.4235 C   0  0  0  0  0  0  0  0  0  0  0  0
    7.6778   16.4324   14.1079 N   0  0  2  0  0  4  0  0  0  0  0  0
   10.7835   10.6204   10.6219 C   0  0  0  0  0  0  0  0  0  0  0  0
   11.7102    9.8780   10.2984 O   0  0  0  0  0  0  0  0  0  0  0  0
    6.3212   16.7408   14.7462 C   0  0  0  0  0  0  0  0  0  0  0  0
    7.9081   17.4908   13.0132 C   0  0  0  0  0  0  0  0  0  0  0  0
    8.7869   16.5931   15.1430 C   0  0  0  0  0  0  0  0  0  0  0  0
    9.4897   10.3988   10.1645 N   0  0  0  0  0  0  0  0  0  0  0  0
    9.2073    9.1595    9.4212 C   0  0  2  0  0  0  0  0  0  0  0  0
    7.7508    9.0380    8.9299 C   0  0  0  0  0  0  0  0  0  0  0  0
    6.7914    9.3040    9.6633 O   0  0  0  0  0  0  0  0  0  0  0  0
    9.5917    7.9111   10.2370 C   0  0  0  0  0  0  0  0  0  0  0  0
    9.3917    6.6993    9.5049 O   0  0  0  0  0  0  0  0  0  0  0  0
    7.5498    8.7641    7.5835 N   0  0  0  0  0  0  0  0  0  0  0  0
    6.1553    8.6931    7.1077 C   0  0  2  0  0  0  0  0  0  0  0  0
    5.2174    7.7792    7.8988 C   0  0  0  0  0  0  0  0  0  0  0  0
    4.8930    6.6688    7.4770 O   0  0  0  0  0  0  0  0  0  0  0  0
    6.0684    8.3668    5.5871 C   0  0  2  0  0  0  0  0  0  0  0  0
    6.4532    6.9954    5.3359 O   0  0  0  0  0  0  0  0  0  0  0  0
    6.8606    9.3102    4.6860 C   0  0  0  0  0  0  0  0  0  0  0  0
    4.6929    8.3307    9.0445 N   0  0  0  0  0  0  0  0  0  0  0  0
    3.5198    7.7051    9.6490 C   0  0  0  0  0  0  0  0  0  0  0  0
    2.2508    8.1495    8.9238 C   0  0  0  0  0  0  0  0  0  0  0  0
    1.9750    7.9607    7.7538 O   0  0  0  0  0  0  0  0  0  0  0  0
    1.4078    8.8812    9.6969 O   0  0  0  0  0  0  0  0  0  0  0  0
   13.0536    9.2462   17.6474 H   0  0  0  0  0  0  0  0  0  0  0  0
  2  1  1  1
  2  3  1  0
  2  5  1  0
  3  4  2  0
  3 10  1  0
  5  6  1  0
  6  7  1  0
  7  8  1  0
  8  9  1  0
 10 11  1  0
 11 12  1  0
 11 14  1  6
 12 13  2  0
 12 19  1  0
 14 15  1  0
 15 16  1  0
 16 17  2  0
 16 18  1  0
 20 19  1  1
 20 21  1  0
 20 23  1  0
 21 22  2  0
 21 26  1  0
 23 24  1  0
 23 25  1  6
 26 27  1  0
 27 28  1  0
 27 30  1  6
 28 29  2  0
 28 31  1  0
 31 32  1  0
 32 33  1  0
 32 35  1  1
 33 34  2  0
 33 42  1  0
 35 36  1  0
 36 37  1  0
 37 38  1  0
 38 39  1  0
 39 40  2  0
 39 41  1  0
 42 43  1  0
 43 44  1  6
 43 49  1  0
 44 45  1  0
 45 46  1  0
 46 47  1  0
 47 48  1  0
 48 51  1  1
 48 52  1  0
 48 53  1  0
 49 50  2  0
 49 54  1  0
 54 55  1  0
 55 56  1  0
 55 58  1  1
 56 57  2  0
 56 60  1  0
 58 59  1  0
 61 60  1  1
 61 62  1  0
 61 64  1  0
 62 63  2  0
 62 67  1  0
 64 65  1  0
 64 66  1  6
 67 68  1  0
 68 69  1  0
 69 70  2  0
 69 71  1  0
 40 72  1  0
M  CHG  3   1   1   9   1  48   1
M  END
$$$$
