
     RDKit          3D

 72 71  0  0  0  0  0  0  0  0999 V2000
   24.2056   22.3065   14.6035 N   0  0  0  0  0  4  0  0  0  0  0  0
   23.3659   21.1210   15.0409 C   0  0  2  0  0  0  0  0  0  0  0  0
   22.2134   20.8827   14.0269 C   0  0  0  0  0  0  0  0  0  0  0  0
   21.0392   20.7761   14.3748 O   0  0  0  0  0  0  0  0  0  0  0  0
   22.8305   21.4348   16.4590 C   0  0  0  0  0  0  0  0  0  0  0  0
   21.8046   22.5830   16.4941 C   0  0  0  0  0  0  0  0  0  0  0  0
   21.2143   22.8997   17.8787 C   0  0  0  0  0  0  0  0  0  0  0  0
   20.9689   24.3895   18.1263 C   0  0  0  0  0  0  0  0  0  0  0  0
   19.5883   24.6170   18.6052 N   0  0  0  0  0  4  0  0  0  0  0  0
   22.5983   20.8215   12.7044 N   0  0  0  0  0  0  0  0  0  0  0  0
   22.2009   19.7242   11.8217 C   0  0  2  0  0  0  0  0  0  0  0  0
   21.1119   18.8613   12.5128 C   0  0  0  0  0  0  0  0  0  0  0  0
   21.1476   18.5791   13.7155 O   0  0  0  0  0  0  0  0  0  0  0  0
   23.3779   18.8982   11.2625 C   0  0  0  0  0  0  0  0  0  0  0  0
   24.7191   19.6290   11.1032 C   0  0  0  0  0  0  0  0  0  0  0  0
   24.8815   20.3780    9.7900 C   0  0  0  0  0  0  0  0  0  0  0  0
   24.8520   21.6018    9.6949 O   0  0  0  0  0  0  0  0  0  0  0  0
   25.1785   19.5899    8.7169 N   0  0  0  0  0  0  0  0  0  0  0  0
   20.0647   18.4887   11.7112 N   0  0  0  0  0  0  0  0  0  0  0  0
   18.9532   17.6641   12.1848 C   0  0  2  0  0  0  0  0  0  0  0  0
   17.9890   17.5048   10.9801 C   0  0  0  0  0  0  0  0  0  0  0  0
   18.0820   18.2355    9.9930 O   0  0  0  0  0  0  0  0  0  0  0  0
   18.2346   18.2622   13.4164 C   0  0  2  0  0  0  0  0  0  0  0  0
   17.2538   19.2150   13.0184 O   0  0  0  0  0  0  0  0  0  0  0  0
   19.1774   18.9152   14.4198 C   0  0  0  0  0  0  0  0  0  0  0  0
   17.1044   16.4553   11.0586 N   0  0  0  0  0  0  0  0  0  0  0  0
   16.1761   16.0868    9.9732 C   0  0  2  0  0  0  0  0  0  0  0  0
   14.7871   16.3914   10.5565 C   0  0  0  0  0  0  0  0  0  0  0  0
   14.6047   16.6927   11.7358 O   0  0  0  0  0  0  0  0  0  0  0  0
   16.2523   14.6515    9.4770 C   0  0  0  0  0  0  0  0  0  0  0  0
   13.7285   16.1058    9.7201 N   0  0  0  0  0  0  0  0  0  0  0  0
   12.3424   16.4600   10.0512 C   0  0  2  0  0  0  0  0  0  0  0  0
   11.4132   15.2396    9.7924 C   0  0  0  0  0  0  0  0  0  0  0  0
   10.6091   15.1694    8.8682 O   0  0  0  0  0  0  0  0  0  0  0  0
   11.9396   17.6789    9.2133 C   0  0  0  0  0  0  0  0  0  0  0  0
   11.1959   18.7577    9.9974 C   0  0  0  0  0  0  0  0  0  0  0  0
    9.6734   18.6515    9.8659 C   0  0  0  0  0  0  0  0  0  0  0  0
    8.9459   19.7390   10.5234 N   0  0  0  0  0  0  0  0  0  0  0  0
    9.1555   20.0576   11.8248 C   0  0  0  0  0  0  0  0  0  0  0  0
    9.9178   19.4011   12.6243 N   0  0  0  0  0  0  0  0  0  0  0  0
    8.4323   21.1263   12.2181 N   0  0  0  0  0  0  0  0  0  0  0  0
   11.5059   14.2232   10.7281 N   0  0  0  0  0  0  0  0  0  0  0  0
   10.7314   12.9831   10.6422 C   0  0  1  0  0  0  0  0  0  0  0  0
   11.5122   11.7119   11.0379 C   0  0  0  0  0  0  0  0  0  0  0  0
   10.7946   10.7228   11.9767 C   0  0  0  0  0  0  0  0  0  0  0  0
   11.7624    9.9292   12.8558 C   0  0  0  0  0  0  0  0  0  0  0  0
   12.5123   10.7390   13.9261 C   0  0  0  0  0  0  0  0  0  0  0  0
   12.6513   10.0953   15.3201 N   0  0  2  0  0  4  0  0  0  0  0  0
    9.2963   13.0477   11.2481 C   0  0  0  0  0  0  0  0  0  0  0  0
    8.8378   14.0664   11.7644 O   0  0  0  0  0  0  0  0  0  0  0  0
   11.3394   10.1621   16.1057 C   0  0  0  0  0  0  0  0  0  0  0  0
   13.6870   10.9190   16.1079 C   0  0  0  0  0  0  0  0  0  0  0  0
   13.1526    8.6553   15.2686 C   0  0  0  0  0  0  0  0  0  0  0  0
    8.5967   11.8469   11.2792 N   0  0  0  0  0  0  0  0  0  0  0  0
    7.1253   11.8891   11.3158 C   0  0  2  0  0  0  0  0  0  0  0  0
    6.4605   10.5104   11.5021 C   0  0  0  0  0  0  0  0  0  0  0  0
    5.3137   10.3951   11.9503 O   0  0  0  0  0  0  0  0  0  0  0  0
    6.5486   12.5855   10.0691 C   0  0  0  0  0  0  0  0  0  0  0  0
    7.5375   13.3323    9.3560 O   0  0  0  0  0  0  0  0  0  0  0  0
    7.1350    9.4020   11.0073 N   0  0  0  0  0  0  0  0  0  0  0  0
    7.6601    9.4872    9.6314 C   0  0  2  0  0  0  0  0  0  0  0  0
    6.9922    8.5801    8.5962 C   0  0  0  0  0  0  0  0  0  0  0  0
    6.5863    7.4557    8.8915 O   0  0  0  0  0  0  0  0  0  0  0  0
    9.2071    9.3140    9.5802 C   0  0  2  0  0  0  0  0  0  0  0  0
    9.5776    7.9444    9.8616 O   0  0  0  0  0  0  0  0  0  0  0  0
    9.9859   10.2668   10.4830 C   0  0  0  0  0  0  0  0  0  0  0  0
    6.9784    9.0708    7.3112 N   0  0  0  0  0  0  0  0  0  0  0  0
    8.1911    8.9569    6.5055 C   0  0  0  0  0  0  0  0  0  0  0  0
    8.4110    7.5055    6.0830 C   0  0  0  0  0  0  0  0  0  0  0  0
    8.6666    7.1021    4.9638 O   0  0  0  0  0  0  0  0  0  0  0  0
    8.2278    6.6104    7.0875 O   0  0  0  0  0  0  0  0  0  0  0  0
    9.6513   19.5975   13.5911 H   0  0  0  0  0  0  0  0  0  0  0  0
  2  1  1  6
  2  3  1  0
  2  5  1  0
  3  4  2  0
  3 10  1  0
  5  6  1  0
  6  7  1  0
  7  8  1  0
  8  9  1  0
 10 11  1  0
 11 12  1  0
 11 14  1  1
 12 13  2  0
 12 19  1  0
 14 15  1  0
 15 16  1  0
 16 17  2  0
 16 18  1  0
 20 19  1  6
 20 21  1  0
 20 23  1  0
 21 22  2  0
 21 26  1  0
 23 24  1  0
 23 25  1  1
 26 27  1  0
 27 28  1  0
 27 30  1  1
 28 29  2  0
 28 31  1  0
 31 32  1  0
 32 33  1  0
 32 35  1  6
 33 34  2  0
 33 42  1  0
 35 36  1  0
 36 37  1  0
 37 38  1  0
 38 39  1  0
 39 40  2  0
 39 41  1  0
 42 43  1  0
 43 44  1  1
 43 49  1  0
 44 45  1  0
 45 46  1  0
 46 47  1  0
 47 48  1  0
 48 51  1  1
 48 52  1  0
 48 53  1  0
 49 50  2  0
 49 54  1  0
 54 55  1  0
 55 56  1  0
 55 58  1  6
 56 57  2  0
 56 60  1  0
 58 59  1  0
 61 60  1  1
 61 62  1  0
 61 64  1  0
 62 63  2  0
 62 67  1  0
 64 65  1  0
 64 66  1  1
 67 68  1  0
 68 69  1  0
 69 70  2  0
 69 71  1  0
 40 72  1  0
M  CHG  3   1   1   9   1  48   1
M  END
$$$$
