
     RDKit          3D

 72 71  0  0  0  0  0  0  0  0999 V2000
   24.0757   24.6093   14.9840 N   0  0  0  0  0  4  0  0  0  0  0  0
   23.5119   23.9642   16.2361 C   0  0  2  0  0  0  0  0  0  0  0  0
   23.0994   22.4964   15.9384 C   0  0  0  0  0  0  0  0  0  0  0  0
   22.7996   22.1106   14.8103 O   0  0  0  0  0  0  0  0  0  0  0  0
   22.3058   24.8210   16.6917 C   0  0  0  0  0  0  0  0  0  0  0  0
   21.9780   25.9859   15.7390 C   0  0  0  0  0  0  0  0  0  0  0  0
   21.5662   25.5784   14.3142 C   0  0  0  0  0  0  0  0  0  0  0  0
   21.0914   26.7443   13.4445 C   0  0  0  0  0  0  0  0  0  0  0  0
   19.6233   26.8973   13.5355 N   0  0  0  0  0  4  0  0  0  0  0  0
   23.1150   21.6500   17.0265 N   0  0  0  0  0  0  0  0  0  0  0  0
   22.5002   20.3224   16.9967 C   0  0  2  0  0  0  0  0  0  0  0  0
   21.4320   20.2627   15.8726 C   0  0  0  0  0  0  0  0  0  0  0  0
   21.1727   21.2284   15.1462 O   0  0  0  0  0  0  0  0  0  0  0  0
   21.9835   19.8287   18.3639 C   0  0  0  0  0  0  0  0  0  0  0  0
   22.9168   20.0284   19.5670 C   0  0  0  0  0  0  0  0  0  0  0  0
   24.1776   19.1790   19.5398 C   0  0  0  0  0  0  0  0  0  0  0  0
   25.0754   19.2644   20.3729 O   0  0  0  0  0  0  0  0  0  0  0  0
   24.1970   18.2181   18.5717 N   0  0  0  0  0  0  0  0  0  0  0  0
   20.8407   19.0396   15.6917 N   0  0  0  0  0  0  0  0  0  0  0  0
   19.7890   18.8018   14.7033 C   0  0  2  0  0  0  0  0  0  0  0  0
   19.3883   17.3103   14.8488 C   0  0  0  0  0  0  0  0  0  0  0  0
   20.2144   16.4623   15.1887 O   0  0  0  0  0  0  0  0  0  0  0  0
   20.2256   19.1377   13.2586 C   0  0  2  0  0  0  0  0  0  0  0  0
   21.1259   18.1538   12.7589 O   0  0  0  0  0  0  0  0  0  0  0  0
   20.8686   20.5119   13.1156 C   0  0  0  0  0  0  0  0  0  0  0  0
   18.0556   17.0295   14.6613 N   0  0  0  0  0  0  0  0  0  0  0  0
   17.4840   15.6739   14.7666 C   0  0  2  0  0  0  0  0  0  0  0  0
   16.9532   15.3864   13.3532 C   0  0  0  0  0  0  0  0  0  0  0  0
   17.0084   16.2045   12.4353 O   0  0  0  0  0  0  0  0  0  0  0  0
   16.3906   15.4804   15.8055 C   0  0  0  0  0  0  0  0  0  0  0  0
   16.2229   14.2231   13.2304 N   0  0  0  0  0  0  0  0  0  0  0  0
   15.9064   13.6230   11.9281 C   0  0  2  0  0  0  0  0  0  0  0  0
   14.9726   12.3953   12.1296 C   0  0  0  0  0  0  0  0  0  0  0  0
   14.9579   11.4126   11.3948 O   0  0  0  0  0  0  0  0  0  0  0  0
   17.2206   13.2403   11.2378 C   0  0  0  0  0  0  0  0  0  0  0  0
   17.0388   12.5273    9.8998 C   0  0  0  0  0  0  0  0  0  0  0  0
   18.3659   12.1127    9.2568 C   0  0  0  0  0  0  0  0  0  0  0  0
   19.3221   11.5276   10.1989 N   0  0  0  0  0  0  0  0  0  0  0  0
   19.4650   10.1859   10.3348 C   0  0  0  0  0  0  0  0  0  0  0  0
   18.5345    9.3870   10.7184 N   0  0  0  0  0  0  0  0  0  0  0  0
   20.7203    9.7703   10.0678 N   0  0  0  0  0  0  0  0  0  0  0  0
   14.0872   12.4996   13.1890 N   0  0  0  0  0  0  0  0  0  0  0  0
   12.6570   12.2073   13.0687 C   0  0  1  0  0  0  0  0  0  0  0  0
   11.7292   13.3230   13.5945 C   0  0  0  0  0  0  0  0  0  0  0  0
   10.3026   13.3683   13.0132 C   0  0  0  0  0  0  0  0  0  0  0  0
    9.2300   13.5656   14.0855 C   0  0  0  0  0  0  0  0  0  0  0  0
    7.9531   14.2902   13.6298 C   0  0  0  0  0  0  0  0  0  0  0  0
    6.8745   14.5467   14.7012 N   0  0  2  0  0  4  0  0  0  0  0  0
   12.2082   11.6173   11.6971 C   0  0  0  0  0  0  0  0  0  0  0  0
   12.9137   11.6652   10.6899 O   0  0  0  0  0  0  0  0  0  0  0  0
    7.2732   15.6867   15.6415 C   0  0  0  0  0  0  0  0  0  0  0  0
    6.7666   13.2740   15.5617 C   0  0  0  0  0  0  0  0  0  0  0  0
    5.4949   14.8200   14.1100 C   0  0  0  0  0  0  0  0  0  0  0  0
   10.9066   11.1324   11.6425 N   0  0  0  0  0  0  0  0  0  0  0  0
   10.3924   10.6370   10.3548 C   0  0  2  0  0  0  0  0  0  0  0  0
    8.9494   10.0974   10.4188 C   0  0  0  0  0  0  0  0  0  0  0  0
    8.2028   10.3451   11.3729 O   0  0  0  0  0  0  0  0  0  0  0  0
   11.3241    9.5725    9.7459 C   0  0  0  0  0  0  0  0  0  0  0  0
   11.1327    8.2822   10.3314 O   0  0  0  0  0  0  0  0  0  0  0  0
    8.4590    9.4456    9.2950 N   0  0  0  0  0  0  0  0  0  0  0  0
    7.0286    9.6221    8.9800 C   0  0  2  0  0  0  0  0  0  0  0  0
    6.5056    8.8566    7.7630 C   0  0  0  0  0  0  0  0  0  0  0  0
    5.9803    9.4382    6.8133 O   0  0  0  0  0  0  0  0  0  0  0  0
    6.6285   11.1243    8.8836 C   0  0  2  0  0  0  0  0  0  0  0  0
    7.2730   11.7531    7.7517 O   0  0  0  0  0  0  0  0  0  0  0  0
    6.8820   11.9347   10.1519 C   0  0  0  0  0  0  0  0  0  0  0  0
    6.5724    7.4862    7.8615 N   0  0  0  0  0  0  0  0  0  0  0  0
    6.1217    6.6804    6.7299 C   0  0  0  0  0  0  0  0  0  0  0  0
    4.5980    6.5707    6.7323 C   0  0  0  0  0  0  0  0  0  0  0  0
    3.9063    6.0008    5.9093 O   0  0  0  0  0  0  0  0  0  0  0  0
    4.0030    7.2515    7.7453 O   0  0  0  0  0  0  0  0  0  0  0  0
   18.6679    9.1531   11.7041 H   0  0  0  0  0  0  0  0  0  0  0  0
  2  1  1  6
  2  3  1  0
  2  5  1  0
  3  4  2  0
  3 10  1  0
  5  6  1  0
  6  7  1  0
  7  8  1  0
  8  9  1  0
 10 11  1  0
 11 12  1  0
 11 14  1  1
 12 13  2  0
 12 19  1  0
 14 15  1  0
 15 16  1  0
 16 17  2  0
 16 18  1  0
 20 19  1  1
 20 21  1  0
 20 23  1  0
 21 22  2  0
 21 26  1  0
 23 24  1  0
 23 25  1  1
 26 27  1  0
 27 28  1  0
 27 30  1  1
 28 29  2  0
 28 31  1  0
 31 32  1  0
 32 33  1  0
 32 35  1  1
 33 34  2  0
 33 42  1  0
 35 36  1  0
 36 37  1  0
 37 38  1  0
 38 39  1  0
 39 40  2  0
 39 41  1  0
 42 43  1  0
 43 44  1  6
 43 49  1  0
 44 45  1  0
 45 46  1  0
 46 47  1  0
 47 48  1  0
 48 51  1  1
 48 52  1  0
 48 53  1  0
 49 50  2  0
 49 54  1  0
 54 55  1  0
 55 56  1  0
 55 58  1  1
 56 57  2  0
 56 60  1  0
 58 59  1  0
 61 60  1  6
 61 62  1  0
 61 64  1  0
 62 63  2  0
 62 67  1  0
 64 65  1  0
 64 66  1  1
 67 68  1  0
 68 69  1  0
 69 70  2  0
 69 71  1  0
 40 72  1  0
M  CHG  3   1   1   9   1  48   1
M  END
$$$$
