
     RDKit          3D

 24 26  0  0  0  0  0  0  0  0999 V2000
  -17.0309   25.2864  -23.0885 C   0  0  0  0  0  0  0  0  0  0  0  0
  -18.2608   25.5430  -23.8499 C   0  0  0  0  0  0  0  0  0  0  0  0
  -19.7668   25.3346  -25.7144 C   0  0  0  0  0  0  0  0  0  0  0  0
  -18.5711   24.9801  -25.0587 C   0  0  0  0  0  0  0  0  0  0  0  0
  -19.1784   26.4571  -23.3315 C   0  0  0  0  0  0  0  0  0  0  0  0
  -20.3432   26.8121  -23.9550 C   0  0  0  0  0  0  0  0  0  0  0  0
  -20.6356   26.2373  -25.1666 C   0  0  0  0  0  0  0  0  0  0  0  0
  -18.4440   20.8379  -18.3412 C   0  0  0  0  0  0  0  0  0  0  0  0
  -19.0031   20.7643  -17.0560 C   0  0  0  0  0  0  0  0  0  0  0  0
  -17.7692   24.0766  -25.6224 F   0  0  0  0  0  0  0  0  0  0  0  0
  -16.5517   26.2212  -22.4033 O   0  0  0  0  0  0  0  0  0  0  0  0
  -16.3345   24.0566  -23.0651 N   0  0  0  0  0  0  0  0  0  0  0  0
  -15.1496   23.7193  -22.5243 N   0  0  0  0  0  0  0  0  0  0  0  0
  -14.8284   22.3611  -21.6905 S   0  0  2  0  0  6  0  0  0  0  0  0
  -13.3161   22.1713  -21.5170 O   0  0  0  0  0  0  0  0  0  0  0  0
  -15.3327   21.0759  -22.3747 O   0  0  0  0  0  0  0  0  0  0  0  0
  -15.5455   22.3123  -20.0927 C   0  0  0  0  0  0  0  0  0  0  0  0
  -16.7018   21.6332  -19.8045 C   0  0  0  0  0  0  0  0  0  0  0  0
  -17.2818   21.5503  -18.5563 C   0  0  0  0  0  0  0  0  0  0  0  0
  -18.3813   21.4083  -16.0197 C   0  0  0  0  0  0  0  0  0  0  0  0
  -17.2029   22.1250  -16.2649 C   0  0  0  0  0  0  0  0  0  0  0  0
  -16.6532   22.2026  -17.5024 C   0  0  0  0  0  0  0  0  0  0  0  0
  -15.4707   22.9007  -17.7838 C   0  0  0  0  0  0  0  0  0  0  0  0
  -14.9343   22.9571  -19.0248 C   0  0  0  0  0  0  0  0  0  0  0  0
  1  2  1  0
  1 11  2  0
 12  1  1  0
  2  4  1  0
  2  5  2  0
  4  3  2  0
  3  7  1  0
  4 10  1  0
  5  6  1  0
  6  7  2  0
  8  9  2  0
 19  8  1  0
  9 20  1  0
 13 12  1  0
 14 13  1  6
 14 15  2  0
 14 16  2  0
 17 14  1  0
 18 17  1  0
 17 24  2  0
 18 19  2  0
 19 22  1  0
 20 21  2  0
 21 22  1  0
 22 23  2  0
 23 24  1  0
M  END
$$$$
