
     RDKit          3D

 24 26  0  0  0  0  0  0  0  0999 V2000
  -16.2960   21.7894  -19.4542 C   0  0  0  0  0  0  0  0  0  0  0  0
  -16.9752   21.4371  -18.2215 C   0  0  0  0  0  0  0  0  0  0  0  0
  -18.9469   21.1475  -16.8856 C   0  0  0  0  0  0  0  0  0  0  0  0
  -18.3277   21.4808  -18.1004 C   0  0  0  0  0  0  0  0  0  0  0  0
  -16.2225   21.0508  -17.1040 C   0  0  0  0  0  0  0  0  0  0  0  0
  -16.8334   20.7281  -15.9264 C   0  0  0  0  0  0  0  0  0  0  0  0
  -18.1988   20.7785  -15.8230 C   0  0  0  0  0  0  0  0  0  0  0  0
  -18.7871   25.0299  -26.0688 C   0  0  0  0  0  0  0  0  0  0  0  0
  -19.8430   25.6541  -26.6955 C   0  0  0  0  0  0  0  0  0  0  0  0
  -19.1428   21.8268  -19.1177 F   0  0  0  0  0  0  0  0  0  0  0  0
  -15.0015   21.8456  -19.4389 O   0  0  0  0  0  0  0  0  0  0  0  0
  -16.9408   22.0787  -20.6739 N   0  0  0  0  0  0  0  0  0  0  0  0
  -16.1060   22.1991  -21.8251 N   0  0  0  0  0  0  0  0  0  0  0  0
  -15.7802   23.8743  -22.0749 S   0  0  2  0  0  6  0  0  0  0  0  0
  -14.5752   24.0788  -22.9436 O   0  0  0  0  0  0  0  0  0  0  0  0
  -15.4326   24.4499  -20.7105 O   0  0  0  0  0  0  0  0  0  0  0  0
  -17.1448   24.7135  -22.7692 C   0  0  0  0  0  0  0  0  0  0  0  0
  -17.4434   24.5656  -24.0989 C   0  0  0  0  0  0  0  0  0  0  0  0
  -18.4903   25.1810  -24.7326 C   0  0  0  0  0  0  0  0  0  0  0  0
  -20.6312   26.4688  -25.9244 C   0  0  0  0  0  0  0  0  0  0  0  0
  -20.3722   26.6489  -24.5870 C   0  0  0  0  0  0  0  0  0  0  0  0
  -19.3009   26.0144  -23.9554 C   0  0  0  0  0  0  0  0  0  0  0  0
  -19.0295   26.1862  -22.6141 C   0  0  0  0  0  0  0  0  0  0  0  0
  -17.9580   25.5450  -22.0059 C   0  0  0  0  0  0  0  0  0  0  0  0
  1  2  1  0
  1 11  2  0
 12  1  1  0
  2  4  1  0
  2  5  2  0
  4  3  2  0
  3  7  1  0
  4 10  1  0
  5  6  1  0
  6  7  2  0
  8  9  2  0
 19  8  1  0
  9 20  1  0
 13 12  1  0
 14 13  1  1
 14 15  2  0
 14 16  2  0
 17 14  1  0
 18 17  1  0
 17 24  2  0
 18 19  2  0
 19 22  1  0
 20 21  2  0
 21 22  1  0
 22 23  2  0
 23 24  1  0
M  END
$$$$
