
     RDKit          3D

 24 26  0  0  0  0  0  0  0  0999 V2000
  -16.6359   27.0286  -10.2554 C   0  0  0  0  0  0  0  0  0  0  0  0
  -15.2249   27.4304  -10.3338 C   0  0  0  0  0  0  0  0  0  0  0  0
  -12.9908   27.4209  -11.2262 C   0  0  0  0  0  0  0  0  0  0  0  0
  -14.3329   26.9948  -11.2767 C   0  0  0  0  0  0  0  0  0  0  0  0
  -14.7304   28.2949   -9.3570 C   0  0  0  0  0  0  0  0  0  0  0  0
  -13.4310   28.7180   -9.2937 C   0  0  0  0  0  0  0  0  0  0  0  0
  -12.5520   28.2691  -10.2476 C   0  0  0  0  0  0  0  0  0  0  0  0
  -23.7566   30.3097  -10.0627 C   0  0  0  0  0  0  0  0  0  0  0  0
  -24.2113   31.3266   -9.2088 C   0  0  0  0  0  0  0  0  0  0  0  0
  -14.7170   26.1869  -12.2651 F   0  0  0  0  0  0  0  0  0  0  0  0
  -17.0947   26.6892   -9.1386 O   0  0  0  0  0  0  0  0  0  0  0  0
  -17.5297   26.9927  -11.3498 N   0  0  0  0  0  0  0  0  0  0  0  0
  -18.7698   26.4837  -11.4647 N   0  0  0  0  0  0  0  0  0  0  0  0
  -20.0800   27.2682  -12.0227 S   0  0  2  0  0  6  0  0  0  0  0  0
  -21.2573   26.3023  -12.2080 O   0  0  0  0  0  0  0  0  0  0  0  0
  -19.8693   27.9348  -13.3958 O   0  0  0  0  0  0  0  0  0  0  0  0
  -20.6328   28.5699  -10.9885 C   0  0  0  0  0  0  0  0  0  0  0  0
  -21.9428   28.9690  -10.9119 C   0  0  0  0  0  0  0  0  0  0  0  0
  -22.4194   29.9701  -10.0923 C   0  0  0  0  0  0  0  0  0  0  0  0
  -23.3116   31.9769   -8.4070 C   0  0  0  0  0  0  0  0  0  0  0  0
  -21.9598   31.6133   -8.4564 C   0  0  0  0  0  0  0  0  0  0  0  0
  -21.5090   30.6319   -9.2771 C   0  0  0  0  0  0  0  0  0  0  0  0
  -20.1667   30.2336   -9.3461 C   0  0  0  0  0  0  0  0  0  0  0  0
  -19.7402   29.2449  -10.1655 C   0  0  0  0  0  0  0  0  0  0  0  0
  1  2  1  0
  1 11  2  0
 12  1  1  0
  2  4  1  0
  2  5  2  0
  4  3  2  0
  3  7  1  0
  4 10  1  0
  5  6  1  0
  6  7  2  0
  8  9  2  0
 19  8  1  0
  9 20  1  0
 13 12  1  0
 14 13  1  1
 14 15  2  0
 14 16  2  0
 17 14  1  0
 18 17  1  0
 17 24  2  0
 18 19  2  0
 19 22  1  0
 20 21  2  0
 21 22  1  0
 22 23  2  0
 23 24  1  0
M  END
$$$$
