
     RDKit          3D

 24 26  0  0  0  0  0  0  0  0999 V2000
  -16.8111   21.9327  -19.8256 C   0  0  0  0  0  0  0  0  0  0  0  0
  -18.0631   21.3780  -19.3462 C   0  0  0  0  0  0  0  0  0  0  0  0
  -19.7398   21.0515  -17.6616 C   0  0  0  0  0  0  0  0  0  0  0  0
  -18.5314   21.6196  -18.0939 C   0  0  0  0  0  0  0  0  0  0  0  0
  -18.8193   20.5502  -20.1876 C   0  0  0  0  0  0  0  0  0  0  0  0
  -19.9938   20.0022  -19.7585 C   0  0  0  0  0  0  0  0  0  0  0  0
  -20.4499   20.2568  -18.4919 C   0  0  0  0  0  0  0  0  0  0  0  0
  -19.6202   25.1163  -25.3593 C   0  0  0  0  0  0  0  0  0  0  0  0
  -20.6864   25.9582  -25.5870 C   0  0  0  0  0  0  0  0  0  0  0  0
  -17.8874   22.4110  -17.2119 F   0  0  0  0  0  0  0  0  0  0  0  0
  -15.7849   21.8855  -19.0359 O   0  0  0  0  0  0  0  0  0  0  0  0
  -16.6255   22.5241  -21.0917 N   0  0  0  0  0  0  0  0  0  0  0  0
  -15.2936   22.9127  -21.4263 N   0  0  0  0  0  0  0  0  0  0  0  0
  -15.3194   23.5971  -23.0092 S   0  0  2  0  0  6  0  0  0  0  0  0
  -15.4066   22.5380  -24.0672 O   0  0  0  0  0  0  0  0  0  0  0  0
  -13.9773   24.2876  -23.1979 O   0  0  0  0  0  0  0  0  0  0  0  0
  -16.6310   24.7311  -23.2144 C   0  0  0  0  0  0  0  0  0  0  0  0
  -17.5923   24.5110  -24.1665 C   0  0  0  0  0  0  0  0  0  0  0  0
  -18.6564   25.3408  -24.4017 C   0  0  0  0  0  0  0  0  0  0  0  0
  -20.7729   27.0793  -24.8026 C   0  0  0  0  0  0  0  0  0  0  0  0
  -19.8337   27.3434  -23.8350 C   0  0  0  0  0  0  0  0  0  0  0  0
  -18.7545   26.4875  -23.6072 C   0  0  0  0  0  0  0  0  0  0  0  0
  -17.8047   26.7404  -22.6395 C   0  0  0  0  0  0  0  0  0  0  0  0
  -16.7387   25.8749  -22.4299 C   0  0  0  0  0  0  0  0  0  0  0  0
  1  2  1  0
  1 11  2  0
 12  1  1  0
  2  4  1  0
  2  5  2  0
  4  3  2  0
  3  7  1  0
  4 10  1  0
  5  6  1  0
  6  7  2  0
  8  9  2  0
 19  8  1  0
  9 20  1  0
 13 12  1  0
 14 13  1  1
 14 15  2  0
 14 16  2  0
 17 14  1  0
 18 17  1  0
 17 24  2  0
 18 19  2  0
 19 22  1  0
 20 21  2  0
 21 22  1  0
 22 23  2  0
 23 24  1  0
M  END
$$$$
