
     RDKit          3D

 24 26  0  0  0  0  0  0  0  0999 V2000
  -17.2649   21.7210  -19.3521 C   0  0  0  0  0  0  0  0  0  0  0  0
  -17.0785   21.7360  -17.8949 C   0  0  0  0  0  0  0  0  0  0  0  0
  -17.7250   21.4129  -15.6002 C   0  0  0  0  0  0  0  0  0  0  0  0
  -18.0029   21.3128  -16.9780 C   0  0  0  0  0  0  0  0  0  0  0  0
  -15.8857   22.2523  -17.3881 C   0  0  0  0  0  0  0  0  0  0  0  0
  -15.6003   22.3564  -16.0542 C   0  0  0  0  0  0  0  0  0  0  0  0
  -16.5406   21.9277  -15.1509 C   0  0  0  0  0  0  0  0  0  0  0  0
  -18.1088   27.3154  -23.7381 C   0  0  0  0  0  0  0  0  0  0  0  0
  -18.4260   28.6674  -23.5345 C   0  0  0  0  0  0  0  0  0  0  0  0
  -19.1622   20.7809  -17.3657 F   0  0  0  0  0  0  0  0  0  0  0  0
  -18.3591   21.3092  -19.8058 O   0  0  0  0  0  0  0  0  0  0  0  0
  -16.2992   22.1378  -20.2964 N   0  0  0  0  0  0  0  0  0  0  0  0
  -16.2608   22.0188  -21.6359 N   0  0  0  0  0  0  0  0  0  0  0  0
  -15.4815   23.0080  -22.6642 S   0  0  2  0  0  6  0  0  0  0  0  0
  -15.8219   22.6616  -24.1193 O   0  0  0  0  0  0  0  0  0  0  0  0
  -13.9460   22.9250  -22.5656 O   0  0  0  0  0  0  0  0  0  0  0  0
  -15.8397   24.7079  -22.4365 C   0  0  0  0  0  0  0  0  0  0  0  0
  -16.7968   25.3803  -23.1529 C   0  0  0  0  0  0  0  0  0  0  0  0
  -17.1246   26.7090  -22.9845 C   0  0  0  0  0  0  0  0  0  0  0  0
  -17.7465   29.3760  -22.5799 C   0  0  0  0  0  0  0  0  0  0  0  0
  -16.7517   28.7369  -21.8287 C   0  0  0  0  0  0  0  0  0  0  0  0
  -16.4370   27.4309  -22.0163 C   0  0  0  0  0  0  0  0  0  0  0  0
  -15.4560   26.7552  -21.2774 C   0  0  0  0  0  0  0  0  0  0  0  0
  -15.1648   25.4487  -21.4745 C   0  0  0  0  0  0  0  0  0  0  0  0
  1  2  1  0
  1 11  2  0
 12  1  1  0
  2  4  1  0
  2  5  2  0
  4  3  2  0
  3  7  1  0
  4 10  1  0
  5  6  1  0
  6  7  2  0
  8  9  2  0
 19  8  1  0
  9 20  1  0
 13 12  1  0
 14 13  1  1
 14 15  2  0
 14 16  2  0
 17 14  1  0
 18 17  1  0
 17 24  2  0
 18 19  2  0
 19 22  1  0
 20 21  2  0
 21 22  1  0
 22 23  2  0
 23 24  1  0
M  END
$$$$
