
     RDKit          3D

 24 26  0  0  0  0  0  0  0  0999 V2000
  -17.2915   19.3569  -18.9071 C   0  0  0  0  0  0  0  0  0  0  0  0
  -16.6522   20.3665  -18.0844 C   0  0  0  0  0  0  0  0  0  0  0  0
  -15.6078   21.1118  -16.0571 C   0  0  0  0  0  0  0  0  0  0  0  0
  -16.2071   20.1035  -16.8279 C   0  0  0  0  0  0  0  0  0  0  0  0
  -16.4948   21.6668  -18.5839 C   0  0  0  0  0  0  0  0  0  0  0  0
  -15.9104   22.6411  -17.8268 C   0  0  0  0  0  0  0  0  0  0  0  0
  -15.4681   22.3572  -16.5615 C   0  0  0  0  0  0  0  0  0  0  0  0
  -17.2592   14.0947  -14.6349 C   0  0  0  0  0  0  0  0  0  0  0  0
  -16.8119   13.0298  -13.8843 C   0  0  0  0  0  0  0  0  0  0  0  0
  -16.2992   18.8839  -16.2593 F   0  0  0  0  0  0  0  0  0  0  0  0
  -17.7539   19.7192  -20.0621 O   0  0  0  0  0  0  0  0  0  0  0  0
  -17.4506   18.0045  -18.5427 N   0  0  0  0  0  0  0  0  0  0  0  0
  -18.0516   17.1478  -19.5131 N   0  0  0  0  0  0  0  0  0  0  0  0
  -19.3597   16.3180  -18.7547 S   0  0  2  0  0  6  0  0  0  0  0  0
  -20.4149   15.9278  -19.7461 O   0  0  0  0  0  0  0  0  0  0  0  0
  -20.0056   17.3158  -17.8056 O   0  0  0  0  0  0  0  0  0  0  0  0
  -18.8250   14.8995  -17.8884 C   0  0  0  0  0  0  0  0  0  0  0  0
  -18.2672   15.0204  -16.6421 C   0  0  0  0  0  0  0  0  0  0  0  0
  -17.8191   13.9692  -15.8868 C   0  0  0  0  0  0  0  0  0  0  0  0
  -16.9418   11.7813  -14.4356 C   0  0  0  0  0  0  0  0  0  0  0  0
  -17.4946   11.6091  -15.6817 C   0  0  0  0  0  0  0  0  0  0  0  0
  -17.9468   12.6910  -16.4395 C   0  0  0  0  0  0  0  0  0  0  0  0
  -18.5035   12.5325  -17.6914 C   0  0  0  0  0  0  0  0  0  0  0  0
  -18.9470   13.6232  -18.4282 C   0  0  0  0  0  0  0  0  0  0  0  0
  1  2  1  0
  1 11  2  0
 12  1  1  0
  2  4  1  0
  2  5  2  0
  4  3  2  0
  3  7  1  0
  4 10  1  0
  5  6  1  0
  6  7  2  0
  8  9  2  0
 19  8  1  0
  9 20  1  0
 13 12  1  0
 14 13  1  6
 14 15  2  0
 14 16  2  0
 17 14  1  0
 18 17  1  0
 17 24  2  0
 18 19  2  0
 19 22  1  0
 20 21  2  0
 21 22  1  0
 22 23  2  0
 23 24  1  0
M  END
$$$$
