
     RDKit          3D

 24 26  0  0  0  0  0  0  0  0999 V2000
  -18.2583   25.1116  -24.4565 C   0  0  0  0  0  0  0  0  0  0  0  0
  -19.5175   25.8314  -24.4198 C   0  0  0  0  0  0  0  0  0  0  0  0
  -20.8253   27.8395  -24.5346 C   0  0  0  0  0  0  0  0  0  0  0  0
  -19.5892   27.1771  -24.5929 C   0  0  0  0  0  0  0  0  0  0  0  0
  -20.7078   25.1298  -24.1836 C   0  0  0  0  0  0  0  0  0  0  0  0
  -21.9056   25.7826  -24.1288 C   0  0  0  0  0  0  0  0  0  0  0  0
  -21.9582   27.1403  -24.3053 C   0  0  0  0  0  0  0  0  0  0  0  0
  -16.5853   24.4620  -17.6298 C   0  0  0  0  0  0  0  0  0  0  0  0
  -16.1983   25.2488  -16.5674 C   0  0  0  0  0  0  0  0  0  0  0  0
  -18.5059   27.9422  -24.8380 F   0  0  0  0  0  0  0  0  0  0  0  0
  -17.4041   25.4302  -25.3773 O   0  0  0  0  0  0  0  0  0  0  0  0
  -17.8921   24.0848  -23.5628 N   0  0  0  0  0  0  0  0  0  0  0  0
  -16.6339   23.4530  -23.7964 N   0  0  0  0  0  0  0  0  0  0  0  0
  -16.2140   22.5611  -22.3812 S   0  0  2  0  0  6  0  0  0  0  0  0
  -15.1847   21.5110  -22.6756 O   0  0  0  0  0  0  0  0  0  0  0  0
  -17.4733   21.8240  -21.9515 O   0  0  0  0  0  0  0  0  0  0  0  0
  -15.6366   23.5956  -21.0988 C   0  0  0  0  0  0  0  0  0  0  0  0
  -16.2959   23.6409  -19.8978 C   0  0  0  0  0  0  0  0  0  0  0  0
  -15.9204   24.4191  -18.8349 C   0  0  0  0  0  0  0  0  0  0  0  0
  -15.0829   26.0266  -16.7427 C   0  0  0  0  0  0  0  0  0  0  0  0
  -14.3883   26.0155  -17.9282 C   0  0  0  0  0  0  0  0  0  0  0  0
  -14.7839   25.2166  -19.0027 C   0  0  0  0  0  0  0  0  0  0  0  0
  -14.0961   25.1958  -20.1980 C   0  0  0  0  0  0  0  0  0  0  0  0
  -14.5074   24.3931  -21.2543 C   0  0  0  0  0  0  0  0  0  0  0  0
  1  2  1  0
  1 11  2  0
 12  1  1  0
  2  4  1  0
  2  5  2  0
  4  3  2  0
  3  7  1  0
  4 10  1  0
  5  6  1  0
  6  7  2  0
  8  9  2  0
 19  8  1  0
  9 20  1  0
 13 12  1  0
 14 13  1  6
 14 15  2  0
 14 16  2  0
 17 14  1  0
 18 17  1  0
 17 24  2  0
 18 19  2  0
 19 22  1  0
 20 21  2  0
 21 22  1  0
 22 23  2  0
 23 24  1  0
M  END
$$$$
