
     RDKit          3D

 24 26  0  0  0  0  0  0  0  0999 V2000
   -8.0972   14.6352  -18.9511 C   0  0  0  0  0  0  0  0  0  0  0  0
   -8.4621   15.9997  -19.3551 C   0  0  0  0  0  0  0  0  0  0  0  0
   -8.7406   18.3710  -19.0604 C   0  0  0  0  0  0  0  0  0  0  0  0
   -8.3167   17.1171  -18.5775 C   0  0  0  0  0  0  0  0  0  0  0  0
   -9.0364   16.1834  -20.6130 C   0  0  0  0  0  0  0  0  0  0  0  0
   -9.4531   17.3933  -21.0968 C   0  0  0  0  0  0  0  0  0  0  0  0
   -9.2996   18.5014  -20.3014 C   0  0  0  0  0  0  0  0  0  0  0  0
   -3.1497   14.8627  -12.8897 C   0  0  0  0  0  0  0  0  0  0  0  0
   -2.9325   15.4180  -11.6191 C   0  0  0  0  0  0  0  0  0  0  0  0
   -7.7550   17.0464  -17.3705 F   0  0  0  0  0  0  0  0  0  0  0  0
   -7.9741   13.7648  -19.8456 O   0  0  0  0  0  0  0  0  0  0  0  0
   -7.8709   14.2179  -17.6196 N   0  0  0  0  0  0  0  0  0  0  0  0
   -7.5416   13.0164  -17.1115 N   0  0  0  0  0  0  0  0  0  0  0  0
   -6.1058   12.6094  -16.4666 S   0  0  2  0  0  6  0  0  0  0  0  0
   -4.9517   13.0868  -17.3573 O   0  0  0  0  0  0  0  0  0  0  0  0
   -5.9041   11.0905  -16.3036 O   0  0  0  0  0  0  0  0  0  0  0  0
   -5.8283   13.2586  -14.8630 C   0  0  0  0  0  0  0  0  0  0  0  0
   -4.6301   13.7917  -14.4613 C   0  0  0  0  0  0  0  0  0  0  0  0
   -4.3816   14.3347  -13.2185 C   0  0  0  0  0  0  0  0  0  0  0  0
   -3.9573   15.4283  -10.7110 C   0  0  0  0  0  0  0  0  0  0  0  0
   -5.1979   14.8856  -11.0697 C   0  0  0  0  0  0  0  0  0  0  0  0
   -5.4197   14.3469  -12.2946 C   0  0  0  0  0  0  0  0  0  0  0  0
   -6.6495   13.8047  -12.6928 C   0  0  0  0  0  0  0  0  0  0  0  0
   -6.8517   13.2809  -13.9239 C   0  0  0  0  0  0  0  0  0  0  0  0
  1  2  1  0
  1 11  2  0
 12  1  1  0
  2  4  1  0
  2  5  2  0
  4  3  2  0
  3  7  1  0
  4 10  1  0
  5  6  1  0
  6  7  2  0
  8  9  2  0
 19  8  1  0
  9 20  1  0
 13 12  1  0
 14 13  1  6
 14 15  2  0
 14 16  2  0
 17 14  1  0
 18 17  1  0
 17 24  2  0
 18 19  2  0
 19 22  1  0
 20 21  2  0
 21 22  1  0
 22 23  2  0
 23 24  1  0
M  END
$$$$
