
     RDKit          3D

 24 26  0  0  0  0  0  0  0  0999 V2000
  -17.9099   21.8526  -18.8931 C   0  0  0  0  0  0  0  0  0  0  0  0
  -17.1825   21.5130  -17.6846 C   0  0  0  0  0  0  0  0  0  0  0  0
  -16.6536   20.0489  -15.8591 C   0  0  0  0  0  0  0  0  0  0  0  0
  -17.3652   20.3339  -17.0349 C   0  0  0  0  0  0  0  0  0  0  0  0
  -16.2672   22.4295  -17.1486 C   0  0  0  0  0  0  0  0  0  0  0  0
  -15.5794   22.1435  -16.0045 C   0  0  0  0  0  0  0  0  0  0  0  0
  -15.7772   20.9492  -15.3627 C   0  0  0  0  0  0  0  0  0  0  0  0
  -12.6138   25.0940  -23.2041 C   0  0  0  0  0  0  0  0  0  0  0  0
  -11.6249   26.0223  -22.9633 C   0  0  0  0  0  0  0  0  0  0  0  0
  -18.2118   19.3801  -17.4737 F   0  0  0  0  0  0  0  0  0  0  0  0
  -19.1997   21.7287  -18.8798 O   0  0  0  0  0  0  0  0  0  0  0  0
  -17.3169   22.3078  -20.0882 N   0  0  0  0  0  0  0  0  0  0  0  0
  -18.1936   22.5305  -21.1921 N   0  0  0  0  0  0  0  0  0  0  0  0
  -17.2320   22.9526  -22.5603 S   0  0  2  0  0  6  0  0  0  0  0  0
  -18.0783   23.4167  -23.7078 O   0  0  0  0  0  0  0  0  0  0  0  0
  -16.5511   21.6709  -23.0155 O   0  0  0  0  0  0  0  0  0  0  0  0
  -16.0485   24.1785  -22.1796 C   0  0  0  0  0  0  0  0  0  0  0  0
  -14.8286   24.1791  -22.8050 C   0  0  0  0  0  0  0  0  0  0  0  0
  -13.8382   25.0966  -22.5737 C   0  0  0  0  0  0  0  0  0  0  0  0
  -11.8976   26.9966  -22.0382 C   0  0  0  0  0  0  0  0  0  0  0  0
  -13.1058   27.0379  -21.3850 C   0  0  0  0  0  0  0  0  0  0  0  0
  -14.1056   26.0951  -21.6318 C   0  0  0  0  0  0  0  0  0  0  0  0
  -15.3227   26.1247  -20.9835 C   0  0  0  0  0  0  0  0  0  0  0  0
  -16.3034   25.1764  -21.2445 C   0  0  0  0  0  0  0  0  0  0  0  0
  1  2  1  0
  1 11  2  0
 12  1  1  0
  2  4  1  0
  2  5  2  0
  4  3  2  0
  3  7  1  0
  4 10  1  0
  5  6  1  0
  6  7  2  0
  8  9  2  0
 19  8  1  0
  9 20  1  0
 13 12  1  0
 14 13  1  1
 14 15  2  0
 14 16  2  0
 17 14  1  0
 18 17  1  0
 17 24  2  0
 18 19  2  0
 19 22  1  0
 20 21  2  0
 21 22  1  0
 22 23  2  0
 23 24  1  0
M  END
$$$$
