
     RDKit          3D

 24 26  0  0  0  0  0  0  0  0999 V2000
   -1.2776   15.5466   -8.9520 C   0  0  0  0  0  0  0  0  0  0  0  0
   -1.5640   16.1683   -7.6521 C   0  0  0  0  0  0  0  0  0  0  0  0
   -1.8100   17.9921   -6.1027 C   0  0  0  0  0  0  0  0  0  0  0  0
   -1.5577   17.5146   -7.4041 C   0  0  0  0  0  0  0  0  0  0  0  0
   -1.8297   15.3334   -6.5664 C   0  0  0  0  0  0  0  0  0  0  0  0
   -2.0766   15.7806   -5.2973 C   0  0  0  0  0  0  0  0  0  0  0  0
   -2.0647   17.1340   -5.0691 C   0  0  0  0  0  0  0  0  0  0  0  0
   -6.9454   13.5999  -14.0367 C   0  0  0  0  0  0  0  0  0  0  0  0
   -8.3228   13.8565  -14.1203 C   0  0  0  0  0  0  0  0  0  0  0  0
   -1.3391   18.3929   -8.3829 F   0  0  0  0  0  0  0  0  0  0  0  0
   -0.6240   14.4763   -8.9664 O   0  0  0  0  0  0  0  0  0  0  0  0
   -1.6834   16.0630  -10.2037 N   0  0  0  0  0  0  0  0  0  0  0  0
   -1.3516   15.7082  -11.4583 N   0  0  0  0  0  0  0  0  0  0  0  0
   -2.1695   14.6746  -12.4102 S   0  0  2  0  0  6  0  0  0  0  0  0
   -2.0408   13.2364  -11.8924 O   0  0  0  0  0  0  0  0  0  0  0  0
   -1.6674   14.6384  -13.8666 O   0  0  0  0  0  0  0  0  0  0  0  0
   -3.8803   15.0264  -12.5494 C   0  0  0  0  0  0  0  0  0  0  0  0
   -4.7623   14.2272  -13.2310 C   0  0  0  0  0  0  0  0  0  0  0  0
   -6.1175   14.4568  -13.3406 C   0  0  0  0  0  0  0  0  0  0  0  0
   -8.8334   14.9673  -13.5035 C   0  0  0  0  0  0  0  0  0  0  0  0
   -7.9714   15.8213  -12.8036 C   0  0  0  0  0  0  0  0  0  0  0  0
   -6.6390   15.5832  -12.7155 C   0  0  0  0  0  0  0  0  0  0  0  0
   -5.7478   16.4085  -12.0158 C   0  0  0  0  0  0  0  0  0  0  0  0
   -4.4229   16.1466  -11.9327 C   0  0  0  0  0  0  0  0  0  0  0  0
  1  2  1  0
  1 11  2  0
 12  1  1  0
  2  4  1  0
  2  5  2  0
  4  3  2  0
  3  7  1  0
  4 10  1  0
  5  6  1  0
  6  7  2  0
  8  9  2  0
 19  8  1  0
  9 20  1  0
 13 12  1  0
 14 13  1  1
 14 15  2  0
 14 16  2  0
 17 14  1  0
 18 17  1  0
 17 24  2  0
 18 19  2  0
 19 22  1  0
 20 21  2  0
 21 22  1  0
 22 23  2  0
 23 24  1  0
M  END
$$$$
