
     RDKit          3D

 24 26  0  0  0  0  0  0  0  0999 V2000
  -15.8633   22.4178  -19.1240 C   0  0  0  0  0  0  0  0  0  0  0  0
  -16.4960   22.0801  -17.8627 C   0  0  0  0  0  0  0  0  0  0  0  0
  -16.5289   21.9424  -15.4677 C   0  0  0  0  0  0  0  0  0  0  0  0
  -15.8904   22.2976  -16.6661 C   0  0  0  0  0  0  0  0  0  0  0  0
  -17.7696   21.4947  -17.8635 C   0  0  0  0  0  0  0  0  0  0  0  0
  -18.3831   21.1527  -16.6928 C   0  0  0  0  0  0  0  0  0  0  0  0
  -17.7566   21.3793  -15.4955 C   0  0  0  0  0  0  0  0  0  0  0  0
  -21.4581   24.3374  -22.3550 C   0  0  0  0  0  0  0  0  0  0  0  0
  -22.7971   24.0164  -22.3951 C   0  0  0  0  0  0  0  0  0  0  0  0
  -14.6723   22.8659  -16.5550 F   0  0  0  0  0  0  0  0  0  0  0  0
  -14.8352   23.2059  -19.0950 O   0  0  0  0  0  0  0  0  0  0  0  0
  -16.2855   21.9526  -20.3859 N   0  0  0  0  0  0  0  0  0  0  0  0
  -15.4809   22.3224  -21.5051 N   0  0  0  0  0  0  0  0  0  0  0  0
  -16.4309   23.3269  -22.5363 S   0  0  2  0  0  6  0  0  0  0  0  0
  -15.8692   23.3795  -23.9257 O   0  0  0  0  0  0  0  0  0  0  0  0
  -16.3265   24.7363  -21.9738 O   0  0  0  0  0  0  0  0  0  0  0  0
  -18.0976   22.8112  -22.6037 C   0  0  0  0  0  0  0  0  0  0  0  0
  -19.1098   23.7245  -22.4608 C   0  0  0  0  0  0  0  0  0  0  0  0
  -20.4440   23.4170  -22.4989 C   0  0  0  0  0  0  0  0  0  0  0  0
  -23.1154   22.6973  -22.5908 C   0  0  0  0  0  0  0  0  0  0  0  0
  -22.1362   21.7448  -22.7394 C   0  0  0  0  0  0  0  0  0  0  0  0
  -20.7801   22.0742  -22.6981 C   0  0  0  0  0  0  0  0  0  0  0  0
  -19.7871   21.1284  -22.8458 C   0  0  0  0  0  0  0  0  0  0  0  0
  -18.4437   21.4784  -22.8013 C   0  0  0  0  0  0  0  0  0  0  0  0
  1  2  1  0
  1 11  2  0
 12  1  1  0
  2  4  1  0
  2  5  2  0
  4  3  2  0
  3  7  1  0
  4 10  1  0
  5  6  1  0
  6  7  2  0
  8  9  2  0
 19  8  1  0
  9 20  1  0
 13 12  1  0
 14 13  1  1
 14 15  2  0
 14 16  2  0
 17 14  1  0
 18 17  1  0
 17 24  2  0
 18 19  2  0
 19 22  1  0
 20 21  2  0
 21 22  1  0
 22 23  2  0
 23 24  1  0
M  END
$$$$
