
     RDKit          3D

 24 26  0  0  0  0  0  0  0  0999 V2000
  -15.5631   22.6047  -19.1510 C   0  0  0  0  0  0  0  0  0  0  0  0
  -16.5530   22.2557  -18.1229 C   0  0  0  0  0  0  0  0  0  0  0  0
  -17.5181   22.2624  -15.9193 C   0  0  0  0  0  0  0  0  0  0  0  0
  -16.5331   22.6984  -16.8276 C   0  0  0  0  0  0  0  0  0  0  0  0
  -17.5798   21.3767  -18.4680 C   0  0  0  0  0  0  0  0  0  0  0  0
  -18.5434   20.9437  -17.5987 C   0  0  0  0  0  0  0  0  0  0  0  0
  -18.5054   21.3983  -16.3041 C   0  0  0  0  0  0  0  0  0  0  0  0
  -17.4625   27.2632  -22.1864 C   0  0  0  0  0  0  0  0  0  0  0  0
  -18.6574   27.9901  -22.3034 C   0  0  0  0  0  0  0  0  0  0  0  0
  -15.6061   23.5606  -16.4098 F   0  0  0  0  0  0  0  0  0  0  0  0
  -14.7925   23.5690  -18.9292 O   0  0  0  0  0  0  0  0  0  0  0  0
  -15.4066   21.9340  -20.3853 N   0  0  0  0  0  0  0  0  0  0  0  0
  -14.4853   22.0689  -21.3564 N   0  0  0  0  0  0  0  0  0  0  0  0
  -14.6287   22.9827  -22.6934 S   0  0  2  0  0  6  0  0  0  0  0  0
  -14.5186   22.1216  -23.9582 O   0  0  0  0  0  0  0  0  0  0  0  0
  -13.5382   24.0628  -22.8299 O   0  0  0  0  0  0  0  0  0  0  0  0
  -16.1351   23.8712  -22.7984 C   0  0  0  0  0  0  0  0  0  0  0  0
  -16.2580   25.1927  -22.4521 C   0  0  0  0  0  0  0  0  0  0  0  0
  -17.4184   25.9314  -22.5453 C   0  0  0  0  0  0  0  0  0  0  0  0
  -19.7776   27.3611  -22.7773 C   0  0  0  0  0  0  0  0  0  0  0  0
  -19.7063   26.0085  -23.1343 C   0  0  0  0  0  0  0  0  0  0  0  0
  -18.5571   25.2961  -23.0261 C   0  0  0  0  0  0  0  0  0  0  0  0
  -18.4449   23.9453  -23.3832 C   0  0  0  0  0  0  0  0  0  0  0  0
  -17.2854   23.2561  -23.2761 C   0  0  0  0  0  0  0  0  0  0  0  0
  1  2  1  0
  1 11  2  0
 12  1  1  0
  2  4  1  0
  2  5  2  0
  4  3  2  0
  3  7  1  0
  4 10  1  0
  5  6  1  0
  6  7  2  0
  8  9  2  0
 19  8  1  0
  9 20  1  0
 13 12  1  0
 14 13  1  1
 14 15  2  0
 14 16  2  0
 17 14  1  0
 18 17  1  0
 17 24  2  0
 18 19  2  0
 19 22  1  0
 20 21  2  0
 21 22  1  0
 22 23  2  0
 23 24  1  0
M  END
$$$$
