
     RDKit          3D

 24 26  0  0  0  0  0  0  0  0999 V2000
  -16.6934   24.6830  -21.9271 C   0  0  0  0  0  0  0  0  0  0  0  0
  -17.0057   23.2487  -21.8655 C   0  0  0  0  0  0  0  0  0  0  0  0
  -16.5339   20.9176  -21.5039 C   0  0  0  0  0  0  0  0  0  0  0  0
  -16.1301   22.2674  -21.4854 C   0  0  0  0  0  0  0  0  0  0  0  0
  -18.2791   22.8339  -22.2561 C   0  0  0  0  0  0  0  0  0  0  0  0
  -18.6869   21.5283  -22.2798 C   0  0  0  0  0  0  0  0  0  0  0  0
  -17.7938   20.5592  -21.8960 C   0  0  0  0  0  0  0  0  0  0  0  0
  -20.5581   28.8807  -27.0867 C   0  0  0  0  0  0  0  0  0  0  0  0
  -21.5412   28.7323  -28.0774 C   0  0  0  0  0  0  0  0  0  0  0  0
  -14.8989   22.5672  -21.0713 F   0  0  0  0  0  0  0  0  0  0  0  0
  -15.6092   25.0756  -21.4341 O   0  0  0  0  0  0  0  0  0  0  0  0
  -17.5260   25.6690  -22.5038 N   0  0  0  0  0  0  0  0  0  0  0  0
  -17.4223   27.0101  -22.5321 N   0  0  0  0  0  0  0  0  0  0  0  0
  -18.6442   28.0696  -22.3656 S   0  0  2  0  0  6  0  0  0  0  0  0
  -18.1271   29.5129  -22.4191 O   0  0  0  0  0  0  0  0  0  0  0  0
  -19.3969   27.9473  -21.0266 O   0  0  0  0  0  0  0  0  0  0  0  0
  -19.8960   27.9200  -23.5823 C   0  0  0  0  0  0  0  0  0  0  0  0
  -19.7897   28.4480  -24.8437 C   0  0  0  0  0  0  0  0  0  0  0  0
  -20.7407   28.3290  -25.8350 C   0  0  0  0  0  0  0  0  0  0  0  0
  -22.6826   28.0343  -27.7858 C   0  0  0  0  0  0  0  0  0  0  0  0
  -22.8435   27.4845  -26.5075 C   0  0  0  0  0  0  0  0  0  0  0  0
  -21.9002   27.6210  -25.5424 C   0  0  0  0  0  0  0  0  0  0  0  0
  -22.0212   27.0765  -24.2564 C   0  0  0  0  0  0  0  0  0  0  0  0
  -21.0630   27.2167  -23.3115 C   0  0  0  0  0  0  0  0  0  0  0  0
  1  2  1  0
  1 11  2  0
 12  1  1  0
  2  4  1  0
  2  5  2  0
  4  3  2  0
  3  7  1  0
  4 10  1  0
  5  6  1  0
  6  7  2  0
  8  9  2  0
 19  8  1  0
  9 20  1  0
 13 12  1  0
 14 13  1  6
 14 15  2  0
 14 16  2  0
 17 14  1  0
 18 17  1  0
 17 24  2  0
 18 19  2  0
 19 22  1  0
 20 21  2  0
 21 22  1  0
 22 23  2  0
 23 24  1  0
M  END
$$$$
