
     RDKit          3D

 24 26  0  0  0  0  0  0  0  0999 V2000
  -13.3892   23.2009  -20.4398 C   0  0  0  0  0  0  0  0  0  0  0  0
  -12.2398   22.3738  -20.7556 C   0  0  0  0  0  0  0  0  0  0  0  0
  -10.1966   21.2582  -20.1753 C   0  0  0  0  0  0  0  0  0  0  0  0
  -11.3033   22.0480  -19.8268 C   0  0  0  0  0  0  0  0  0  0  0  0
  -12.0682   21.8995  -22.0634 C   0  0  0  0  0  0  0  0  0  0  0  0
  -10.9886   21.1316  -22.3932 C   0  0  0  0  0  0  0  0  0  0  0  0
  -10.0541   20.8137  -21.4430 C   0  0  0  0  0  0  0  0  0  0  0  0
  -20.7368   21.4944  -18.5780 C   0  0  0  0  0  0  0  0  0  0  0  0
  -21.4654   20.4405  -18.0720 C   0  0  0  0  0  0  0  0  0  0  0  0
  -11.3813   22.4424  -18.5393 F   0  0  0  0  0  0  0  0  0  0  0  0
  -13.2428   24.1269  -19.5453 O   0  0  0  0  0  0  0  0  0  0  0  0
  -14.6609   23.0720  -21.0341 N   0  0  0  0  0  0  0  0  0  0  0  0
  -15.6744   23.9657  -20.5749 N   0  0  0  0  0  0  0  0  0  0  0  0
  -17.1069   23.6612  -21.4859 S   0  0  2  0  0  6  0  0  0  0  0  0
  -16.8081   23.4976  -22.9462 O   0  0  0  0  0  0  0  0  0  0  0  0
  -17.9679   24.9086  -21.3576 O   0  0  0  0  0  0  0  0  0  0  0  0
  -17.9671   22.2556  -20.9090 C   0  0  0  0  0  0  0  0  0  0  0  0
  -18.9844   22.3928  -20.0005 C   0  0  0  0  0  0  0  0  0  0  0  0
  -19.7154   21.3526  -19.4907 C   0  0  0  0  0  0  0  0  0  0  0  0
  -21.1371   19.1861  -18.5173 C   0  0  0  0  0  0  0  0  0  0  0  0
  -20.1252   18.9977  -19.4276 C   0  0  0  0  0  0  0  0  0  0  0  0
  -19.3890   20.0685  -19.9380 C   0  0  0  0  0  0  0  0  0  0  0  0
  -18.3709   19.8937  -20.8520 C   0  0  0  0  0  0  0  0  0  0  0  0
  -17.6511   20.9736  -21.3469 C   0  0  0  0  0  0  0  0  0  0  0  0
  1  2  1  0
  1 11  2  0
 12  1  1  0
  2  4  1  0
  2  5  2  0
  4  3  2  0
  3  7  1  0
  4 10  1  0
  5  6  1  0
  6  7  2  0
  8  9  2  0
 19  8  1  0
  9 20  1  0
 13 12  1  0
 14 13  1  1
 14 15  2  0
 14 16  2  0
 17 14  1  0
 18 17  1  0
 17 24  2  0
 18 19  2  0
 19 22  1  0
 20 21  2  0
 21 22  1  0
 22 23  2  0
 23 24  1  0
M  END
$$$$
