
     RDKit          3D

 24 26  0  0  0  0  0  0  0  0999 V2000
  -17.2720   21.1022  -20.1846 C   0  0  0  0  0  0  0  0  0  0  0  0
  -17.3332   20.9655  -18.7231 C   0  0  0  0  0  0  0  0  0  0  0  0
  -16.9079   21.6051  -16.4433 C   0  0  0  0  0  0  0  0  0  0  0  0
  -16.8235   21.8648  -17.8256 C   0  0  0  0  0  0  0  0  0  0  0  0
  -17.9218   19.8173  -18.1926 C   0  0  0  0  0  0  0  0  0  0  0  0
  -18.0118   19.5500  -16.8539 C   0  0  0  0  0  0  0  0  0  0  0  0
  -17.4938   20.4637  -15.9703 C   0  0  0  0  0  0  0  0  0  0  0  0
  -18.1397   27.6830  -24.0210 C   0  0  0  0  0  0  0  0  0  0  0  0
  -18.5239   29.0175  -23.8179 C   0  0  0  0  0  0  0  0  0  0  0  0
  -16.2647   23.0037  -18.2354 F   0  0  0  0  0  0  0  0  0  0  0  0
  -17.7732   20.1920  -20.8869 O   0  0  0  0  0  0  0  0  0  0  0  0
  -16.6866   22.1895  -20.8725 N   0  0  0  0  0  0  0  0  0  0  0  0
  -16.4787   22.3990  -22.1851 N   0  0  0  0  0  0  0  0  0  0  0  0
  -15.4287   23.4583  -22.8322 S   0  0  2  0  0  6  0  0  0  0  0  0
  -15.2812   23.2286  -24.3417 O   0  0  0  0  0  0  0  0  0  0  0  0
  -14.0038   23.3549  -22.2549 O   0  0  0  0  0  0  0  0  0  0  0  0
  -15.8693   25.1384  -22.6021 C   0  0  0  0  0  0  0  0  0  0  0  0
  -16.7979   25.7880  -23.3748 C   0  0  0  0  0  0  0  0  0  0  0  0
  -17.1893   27.0996  -23.2080 C   0  0  0  0  0  0  0  0  0  0  0  0
  -17.9436   29.7323  -22.8042 C   0  0  0  0  0  0  0  0  0  0  0  0
  -16.9812   29.1168  -21.9936 C   0  0  0  0  0  0  0  0  0  0  0  0
  -16.6025   27.8277  -22.1800 C   0  0  0  0  0  0  0  0  0  0  0  0
  -15.6515   27.1754  -21.3832 C   0  0  0  0  0  0  0  0  0  0  0  0
  -15.2954   25.8850  -21.5809 C   0  0  0  0  0  0  0  0  0  0  0  0
  1  2  1  0
  1 11  2  0
 12  1  1  0
  2  4  1  0
  2  5  2  0
  4  3  2  0
  3  7  1  0
  4 10  1  0
  5  6  1  0
  6  7  2  0
  8  9  2  0
 19  8  1  0
  9 20  1  0
 13 12  1  0
 14 13  1  1
 14 15  2  0
 14 16  2  0
 17 14  1  0
 18 17  1  0
 17 24  2  0
 18 19  2  0
 19 22  1  0
 20 21  2  0
 21 22  1  0
 22 23  2  0
 23 24  1  0
M  END
$$$$
