
     RDKit          3D

 24 26  0  0  0  0  0  0  0  0999 V2000
   -4.2453   19.3950  -13.5650 C   0  0  0  0  0  0  0  0  0  0  0  0
   -4.9622   20.5560  -13.0718 C   0  0  0  0  0  0  0  0  0  0  0  0
   -6.2734   21.7064  -11.4247 C   0  0  0  0  0  0  0  0  0  0  0  0
   -5.5760   20.5688  -11.8598 C   0  0  0  0  0  0  0  0  0  0  0  0
   -5.0456   21.7063  -13.8684 C   0  0  0  0  0  0  0  0  0  0  0  0
   -5.7261   22.8084  -13.4368 C   0  0  0  0  0  0  0  0  0  0  0  0
   -6.3393   22.8026  -12.2115 C   0  0  0  0  0  0  0  0  0  0  0  0
   -6.1866   12.7018  -14.5292 C   0  0  0  0  0  0  0  0  0  0  0  0
   -7.3649   11.9943  -14.6219 C   0  0  0  0  0  0  0  0  0  0  0  0
   -5.5451   19.5196  -11.0128 F   0  0  0  0  0  0  0  0  0  0  0  0
   -4.2132   19.2009  -14.8458 O   0  0  0  0  0  0  0  0  0  0  0  0
   -3.5788   18.4557  -12.7523 N   0  0  0  0  0  0  0  0  0  0  0  0
   -2.9163   17.3853  -13.4245 N   0  0  0  0  0  0  0  0  0  0  0  0
   -2.9149   16.0162  -12.3755 S   0  0  2  0  0  6  0  0  0  0  0  0
   -2.5779   16.4011  -10.9660 O   0  0  0  0  0  0  0  0  0  0  0  0
   -1.7916   15.1105  -12.8570 O   0  0  0  0  0  0  0  0  0  0  0  0
   -4.4418   15.1699  -12.3964 C   0  0  0  0  0  0  0  0  0  0  0  0
   -4.7315   14.2918  -13.4084 C   0  0  0  0  0  0  0  0  0  0  0  0
   -5.8992   13.5831  -13.5108 C   0  0  0  0  0  0  0  0  0  0  0  0
   -8.2911   12.1950  -13.6312 C   0  0  0  0  0  0  0  0  0  0  0  0
   -8.0468   13.0648  -12.5960 C   0  0  0  0  0  0  0  0  0  0  0  0
   -6.8512   13.7802  -12.5056 C   0  0  0  0  0  0  0  0  0  0  0  0
   -6.5929   14.6563  -11.4721 C   0  0  0  0  0  0  0  0  0  0  0  0
   -5.3962   15.3580  -11.4019 C   0  0  0  0  0  0  0  0  0  0  0  0
  1  2  1  0
  1 11  2  0
 12  1  1  0
  2  4  1  0
  2  5  2  0
  4  3  2  0
  3  7  1  0
  4 10  1  0
  5  6  1  0
  6  7  2  0
  8  9  2  0
 19  8  1  0
  9 20  1  0
 13 12  1  0
 14 13  1  6
 14 15  2  0
 14 16  2  0
 17 14  1  0
 18 17  1  0
 17 24  2  0
 18 19  2  0
 19 22  1  0
 20 21  2  0
 21 22  1  0
 22 23  2  0
 23 24  1  0
M  END
$$$$
