
     RDKit          3D

 24 26  0  0  0  0  0  0  0  0999 V2000
  -15.4763   22.4134  -18.7733 C   0  0  0  0  0  0  0  0  0  0  0  0
  -16.0037   22.3027  -17.4066 C   0  0  0  0  0  0  0  0  0  0  0  0
  -15.8621   22.0952  -15.0140 C   0  0  0  0  0  0  0  0  0  0  0  0
  -15.2418   22.2408  -16.2707 C   0  0  0  0  0  0  0  0  0  0  0  0
  -17.3858   22.2165  -17.2383 C   0  0  0  0  0  0  0  0  0  0  0  0
  -18.0036   22.0750  -16.0259 C   0  0  0  0  0  0  0  0  0  0  0  0
  -17.2222   22.0139  -14.8991 C   0  0  0  0  0  0  0  0  0  0  0  0
  -21.8532   24.4009  -22.3750 C   0  0  0  0  0  0  0  0  0  0  0  0
  -23.2160   24.0690  -22.3265 C   0  0  0  0  0  0  0  0  0  0  0  0
  -13.9137   22.3403  -16.3275 F   0  0  0  0  0  0  0  0  0  0  0  0
  -14.2333   22.3714  -18.9346 O   0  0  0  0  0  0  0  0  0  0  0  0
  -16.2655   22.5655  -19.9361 N   0  0  0  0  0  0  0  0  0  0  0  0
  -15.9273   22.6038  -21.2377 N   0  0  0  0  0  0  0  0  0  0  0  0
  -16.8381   23.1953  -22.4477 S   0  0  2  0  0  6  0  0  0  0  0  0
  -16.3315   22.6965  -23.8070 O   0  0  0  0  0  0  0  0  0  0  0  0
  -16.8290   24.7334  -22.5398 O   0  0  0  0  0  0  0  0  0  0  0  0
  -18.5360   22.7769  -22.3397 C   0  0  0  0  0  0  0  0  0  0  0  0
  -19.5460   23.7041  -22.3774 C   0  0  0  0  0  0  0  0  0  0  0  0
  -20.8923   23.4118  -22.3215 C   0  0  0  0  0  0  0  0  0  0  0  0
  -23.5792   22.7525  -22.2248 C   0  0  0  0  0  0  0  0  0  0  0  0
  -22.5842   21.7680  -22.1718 C   0  0  0  0  0  0  0  0  0  0  0  0
  -21.2643   22.0768  -22.2184 C   0  0  0  0  0  0  0  0  0  0  0  0
  -20.2414   21.1191  -22.1786 C   0  0  0  0  0  0  0  0  0  0  0  0
  -18.9304   21.4489  -22.2363 C   0  0  0  0  0  0  0  0  0  0  0  0
  1  2  1  0
  1 11  2  0
 12  1  1  0
  2  4  1  0
  2  5  2  0
  4  3  2  0
  3  7  1  0
  4 10  1  0
  5  6  1  0
  6  7  2  0
  8  9  2  0
 19  8  1  0
  9 20  1  0
 13 12  1  0
 14 13  1  1
 14 15  2  0
 14 16  2  0
 17 14  1  0
 18 17  1  0
 17 24  2  0
 18 19  2  0
 19 22  1  0
 20 21  2  0
 21 22  1  0
 22 23  2  0
 23 24  1  0
M  END
$$$$
