
     RDKit          3D

 24 26  0  0  0  0  0  0  0  0999 V2000
  -19.9565   18.4716  -38.3101 C   0  0  0  0  0  0  0  0  0  0  0  0
  -20.0146   19.9322  -38.4573 C   0  0  0  0  0  0  0  0  0  0  0  0
  -19.7349   22.0319  -39.5977 C   0  0  0  0  0  0  0  0  0  0  0  0
  -19.6757   20.6242  -39.5889 C   0  0  0  0  0  0  0  0  0  0  0  0
  -20.4098   20.6905  -37.3550 C   0  0  0  0  0  0  0  0  0  0  0  0
  -20.4727   22.0571  -37.3470 C   0  0  0  0  0  0  0  0  0  0  0  0
  -20.1279   22.7325  -38.4911 C   0  0  0  0  0  0  0  0  0  0  0  0
  -17.9373   13.7115  -32.3488 C   0  0  0  0  0  0  0  0  0  0  0  0
  -17.1927   13.7251  -31.1591 C   0  0  0  0  0  0  0  0  0  0  0  0
  -19.3101   19.9865  -40.7010 F   0  0  0  0  0  0  0  0  0  0  0  0
  -19.5463   17.7935  -39.2821 O   0  0  0  0  0  0  0  0  0  0  0  0
  -20.3300   17.7592  -37.1478 N   0  0  0  0  0  0  0  0  0  0  0  0
  -20.4945   16.4416  -36.9306 N   0  0  0  0  0  0  0  0  0  0  0  0
  -21.2921   15.7678  -35.6845 S   0  0  2  0  0  6  0  0  0  0  0  0
  -21.6603   14.3113  -35.9948 O   0  0  0  0  0  0  0  0  0  0  0  0
  -22.6213   16.4687  -35.3433 O   0  0  0  0  0  0  0  0  0  0  0  0
  -20.4010   15.7691  -34.1759 C   0  0  0  0  0  0  0  0  0  0  0  0
  -19.5352   14.7704  -33.8096 C   0  0  0  0  0  0  0  0  0  0  0  0
  -18.7979   14.7490  -32.6447 C   0  0  0  0  0  0  0  0  0  0  0  0
  -17.3317   14.7797  -30.2967 C   0  0  0  0  0  0  0  0  0  0  0  0
  -18.2122   15.8200  -30.6206 C   0  0  0  0  0  0  0  0  0  0  0  0
  -18.9364   15.8179  -31.7674 C   0  0  0  0  0  0  0  0  0  0  0  0
  -19.8185   16.8451  -32.1301 C   0  0  0  0  0  0  0  0  0  0  0  0
  -20.5243   16.8273  -33.2844 C   0  0  0  0  0  0  0  0  0  0  0  0
  1  2  1  0
  1 11  2  0
 12  1  1  0
  2  4  1  0
  2  5  2  0
  4  3  2  0
  3  7  1  0
  4 10  1  0
  5  6  1  0
  6  7  2  0
  8  9  2  0
 19  8  1  0
  9 20  1  0
 13 12  1  0
 14 13  1  6
 14 15  2  0
 14 16  2  0
 17 14  1  0
 18 17  1  0
 17 24  2  0
 18 19  2  0
 19 22  1  0
 20 21  2  0
 21 22  1  0
 22 23  2  0
 23 24  1  0
M  END
$$$$
