
     RDKit          3D

 24 26  0  0  0  0  0  0  0  0999 V2000
  -15.8938   22.9665  -19.2250 C   0  0  0  0  0  0  0  0  0  0  0  0
  -16.0025   22.4742  -17.8646 C   0  0  0  0  0  0  0  0  0  0  0  0
  -15.1562   22.1560  -15.6423 C   0  0  0  0  0  0  0  0  0  0  0  0
  -15.0204   22.6616  -16.9445 C   0  0  0  0  0  0  0  0  0  0  0  0
  -17.1478   21.7658  -17.4755 C   0  0  0  0  0  0  0  0  0  0  0  0
  -17.2712   21.2779  -16.2064 C   0  0  0  0  0  0  0  0  0  0  0  0
  -16.2701   21.4764  -15.2923 C   0  0  0  0  0  0  0  0  0  0  0  0
  -21.9222   21.6901  -21.3043 C   0  0  0  0  0  0  0  0  0  0  0  0
  -23.2227   22.1080  -21.1268 C   0  0  0  0  0  0  0  0  0  0  0  0
  -13.8857   23.3392  -17.2132 F   0  0  0  0  0  0  0  0  0  0  0  0
  -15.3317   24.1192  -19.4099 O   0  0  0  0  0  0  0  0  0  0  0  0
  -16.3574   22.2831  -20.3675 N   0  0  0  0  0  0  0  0  0  0  0  0
  -15.9736   22.8200  -21.6328 N   0  0  0  0  0  0  0  0  0  0  0  0
  -17.0480   22.1919  -22.8269 S   0  0  2  0  0  6  0  0  0  0  0  0
  -17.0896   20.6933  -22.7985 O   0  0  0  0  0  0  0  0  0  0  0  0
  -16.4633   22.5830  -24.1756 O   0  0  0  0  0  0  0  0  0  0  0  0
  -18.6673   22.8205  -22.6507 C   0  0  0  0  0  0  0  0  0  0  0  0
  -19.6459   22.0561  -22.0699 C   0  0  0  0  0  0  0  0  0  0  0  0
  -20.9418   22.4610  -21.8883 C   0  0  0  0  0  0  0  0  0  0  0  0
  -23.5368   23.3686  -21.5647 C   0  0  0  0  0  0  0  0  0  0  0  0
  -22.5905   24.1725  -22.1531 C   0  0  0  0  0  0  0  0  0  0  0  0
  -21.2733   23.7453  -22.3313 C   0  0  0  0  0  0  0  0  0  0  0  0
  -20.3135   24.5417  -22.9202 C   0  0  0  0  0  0  0  0  0  0  0  0
  -19.0085   24.0964  -23.0876 C   0  0  0  0  0  0  0  0  0  0  0  0
  1  2  1  0
  1 11  2  0
 12  1  1  0
  2  4  1  0
  2  5  2  0
  4  3  2  0
  3  7  1  0
  4 10  1  0
  5  6  1  0
  6  7  2  0
  8  9  2  0
 19  8  1  0
  9 20  1  0
 13 12  1  0
 14 13  1  1
 14 15  2  0
 14 16  2  0
 17 14  1  0
 18 17  1  0
 17 24  2  0
 18 19  2  0
 19 22  1  0
 20 21  2  0
 21 22  1  0
 22 23  2  0
 23 24  1  0
M  END
$$$$
