
     RDKit          3D

 24 26  0  0  0  0  0  0  0  0999 V2000
  -16.8137   21.5962  -19.5855 C   0  0  0  0  0  0  0  0  0  0  0  0
  -17.1137   21.5916  -18.1473 C   0  0  0  0  0  0  0  0  0  0  0  0
  -18.5124   21.3759  -16.2019 C   0  0  0  0  0  0  0  0  0  0  0  0
  -18.3357   21.3098  -17.5983 C   0  0  0  0  0  0  0  0  0  0  0  0
  -16.0931   21.9342  -17.2601 C   0  0  0  0  0  0  0  0  0  0  0  0
  -16.2479   22.0029  -15.9025 C   0  0  0  0  0  0  0  0  0  0  0  0
  -17.4812   21.7178  -15.3717 C   0  0  0  0  0  0  0  0  0  0  0  0
  -18.6773   25.4369  -24.6720 C   0  0  0  0  0  0  0  0  0  0  0  0
  -19.6859   26.4083  -24.7673 C   0  0  0  0  0  0  0  0  0  0  0  0
  -19.3659   20.9476  -18.3629 F   0  0  0  0  0  0  0  0  0  0  0  0
  -17.7293   21.2828  -20.3833 O   0  0  0  0  0  0  0  0  0  0  0  0
  -15.5616   21.9291  -20.1506 N   0  0  0  0  0  0  0  0  0  0  0  0
  -15.1299   21.9048  -21.4247 N   0  0  0  0  0  0  0  0  0  0  0  0
  -14.6788   23.1926  -22.3086 S   0  0  2  0  0  6  0  0  0  0  0  0
  -14.2972   22.7709  -23.7333 O   0  0  0  0  0  0  0  0  0  0  0  0
  -13.4473   23.9313  -21.7500 O   0  0  0  0  0  0  0  0  0  0  0  0
  -15.9058   24.4359  -22.4451 C   0  0  0  0  0  0  0  0  0  0  0  0
  -16.8058   24.4983  -23.4782 C   0  0  0  0  0  0  0  0  0  0  0  0
  -17.8004   25.4445  -23.6064 C   0  0  0  0  0  0  0  0  0  0  0  0
  -19.7878   27.3628  -23.7907 C   0  0  0  0  0  0  0  0  0  0  0  0
  -18.8850   27.3485  -22.7198 C   0  0  0  0  0  0  0  0  0  0  0  0
  -17.9068   26.4145  -22.6168 C   0  0  0  0  0  0  0  0  0  0  0  0
  -16.9926   26.3620  -21.5555 C   0  0  0  0  0  0  0  0  0  0  0  0
  -16.0301   25.4151  -21.4676 C   0  0  0  0  0  0  0  0  0  0  0  0
  1  2  1  0
  1 11  2  0
 12  1  1  0
  2  4  1  0
  2  5  2  0
  4  3  2  0
  3  7  1  0
  4 10  1  0
  5  6  1  0
  6  7  2  0
  8  9  2  0
 19  8  1  0
  9 20  1  0
 13 12  1  0
 14 13  1  1
 14 15  2  0
 14 16  2  0
 17 14  1  0
 18 17  1  0
 17 24  2  0
 18 19  2  0
 19 22  1  0
 20 21  2  0
 21 22  1  0
 22 23  2  0
 23 24  1  0
M  END
$$$$
