
     RDKit          3D

 24 26  0  0  0  0  0  0  0  0999 V2000
  -16.7061   21.7252  -19.6417 C   0  0  0  0  0  0  0  0  0  0  0  0
  -17.5346   21.7724  -18.4294 C   0  0  0  0  0  0  0  0  0  0  0  0
  -18.0149   22.2536  -16.1217 C   0  0  0  0  0  0  0  0  0  0  0  0
  -17.1442   22.3012  -17.2284 C   0  0  0  0  0  0  0  0  0  0  0  0
  -18.8083   21.2056  -18.4789 C   0  0  0  0  0  0  0  0  0  0  0  0
  -19.6657   21.1513  -17.4142 C   0  0  0  0  0  0  0  0  0  0  0  0
  -19.2552   21.6861  -16.2186 C   0  0  0  0  0  0  0  0  0  0  0  0
  -17.5353   27.5091  -22.9566 C   0  0  0  0  0  0  0  0  0  0  0  0
  -18.7146   28.0865  -23.4524 C   0  0  0  0  0  0  0  0  0  0  0  0
  -15.9550   22.8874  -17.0894 F   0  0  0  0  0  0  0  0  0  0  0  0
  -17.0352   20.9303  -20.5543 O   0  0  0  0  0  0  0  0  0  0  0  0
  -15.5537   22.5122  -19.8663 N   0  0  0  0  0  0  0  0  0  0  0  0
  -14.6107   22.4496  -20.8239 N   0  0  0  0  0  0  0  0  0  0  0  0
  -14.4201   23.4983  -22.0515 S   0  0  2  0  0  6  0  0  0  0  0  0
  -13.7432   22.8201  -23.2495 O   0  0  0  0  0  0  0  0  0  0  0  0
  -13.5333   24.7097  -21.7042 O   0  0  0  0  0  0  0  0  0  0  0  0
  -15.9146   24.2062  -22.6305 C   0  0  0  0  0  0  0  0  0  0  0  0
  -16.1858   25.5495  -22.5727 C   0  0  0  0  0  0  0  0  0  0  0  0
  -17.3375   26.1459  -23.0408 C   0  0  0  0  0  0  0  0  0  0  0  0
  -19.6652   27.2804  -24.0196 C   0  0  0  0  0  0  0  0  0  0  0  0
  -19.4400   25.8997  -24.0925 C   0  0  0  0  0  0  0  0  0  0  0  0
  -18.3041   25.3307  -23.6172 C   0  0  0  0  0  0  0  0  0  0  0  0
  -18.0392   23.9557  -23.6821 C   0  0  0  0  0  0  0  0  0  0  0  0
  -16.8944   23.4102  -23.2101 C   0  0  0  0  0  0  0  0  0  0  0  0
  1  2  1  0
  1 11  2  0
 12  1  1  0
  2  4  1  0
  2  5  2  0
  4  3  2  0
  3  7  1  0
  4 10  1  0
  5  6  1  0
  6  7  2  0
  8  9  2  0
 19  8  1  0
  9 20  1  0
 13 12  1  0
 14 13  1  1
 14 15  2  0
 14 16  2  0
 17 14  1  0
 18 17  1  0
 17 24  2  0
 18 19  2  0
 19 22  1  0
 20 21  2  0
 21 22  1  0
 22 23  2  0
 23 24  1  0
M  END
$$$$
