
     RDKit          3D

 24 26  0  0  0  0  0  0  0  0999 V2000
  -16.8492   22.8348  -19.3023 C   0  0  0  0  0  0  0  0  0  0  0  0
  -17.8884   21.8256  -19.2215 C   0  0  0  0  0  0  0  0  0  0  0  0
  -19.6526   20.5064  -20.1718 C   0  0  0  0  0  0  0  0  0  0  0  0
  -18.6457   21.4766  -20.2941 C   0  0  0  0  0  0  0  0  0  0  0  0
  -18.1414   21.1908  -17.9976 C   0  0  0  0  0  0  0  0  0  0  0  0
  -19.1228   20.2480  -17.8882 C   0  0  0  0  0  0  0  0  0  0  0  0
  -19.8768   19.9094  -18.9809 C   0  0  0  0  0  0  0  0  0  0  0  0
  -11.1800   19.2925  -22.6308 C   0  0  0  0  0  0  0  0  0  0  0  0
  -10.2287   18.3097  -22.4674 C   0  0  0  0  0  0  0  0  0  0  0  0
  -18.4748   22.0175  -21.5178 F   0  0  0  0  0  0  0  0  0  0  0  0
  -17.0977   24.0029  -18.7995 O   0  0  0  0  0  0  0  0  0  0  0  0
  -15.5832   22.6409  -19.8911 N   0  0  0  0  0  0  0  0  0  0  0  0
  -14.7431   23.7901  -19.9930 N   0  0  0  0  0  0  0  0  0  0  0  0
  -13.7047   23.5728  -21.3529 S   0  0  2  0  0  6  0  0  0  0  0  0
  -13.0635   24.8626  -21.7695 O   0  0  0  0  0  0  0  0  0  0  0  0
  -14.5967   23.1406  -22.5067 O   0  0  0  0  0  0  0  0  0  0  0  0
  -12.4657   22.3803  -21.0506 C   0  0  0  0  0  0  0  0  0  0  0  0
  -12.2928   21.3295  -21.9136 C   0  0  0  0  0  0  0  0  0  0  0  0
  -11.3507   20.3468  -21.7615 C   0  0  0  0  0  0  0  0  0  0  0  0
   -9.4154   18.4071  -21.3681 C   0  0  0  0  0  0  0  0  0  0  0  0
   -9.5501   19.4420  -20.4743 C   0  0  0  0  0  0  0  0  0  0  0  0
  -10.5155   20.4363  -20.6433 C   0  0  0  0  0  0  0  0  0  0  0  0
  -10.6616   21.4805  -19.7541 C   0  0  0  0  0  0  0  0  0  0  0  0
  -11.6293   22.4591  -19.9418 C   0  0  0  0  0  0  0  0  0  0  0  0
  1  2  1  0
  1 11  2  0
 12  1  1  0
  2  4  1  0
  2  5  2  0
  4  3  2  0
  3  7  1  0
  4 10  1  0
  5  6  1  0
  6  7  2  0
  8  9  2  0
 19  8  1  0
  9 20  1  0
 13 12  1  0
 14 13  1  1
 14 15  2  0
 14 16  2  0
 17 14  1  0
 18 17  1  0
 17 24  2  0
 18 19  2  0
 19 22  1  0
 20 21  2  0
 21 22  1  0
 22 23  2  0
 23 24  1  0
M  END
$$$$
