
     RDKit          3D

 24 26  0  0  0  0  0  0  0  0999 V2000
  -14.6232   22.7025  -18.5659 C   0  0  0  0  0  0  0  0  0  0  0  0
  -14.6114   22.9973  -17.1453 C   0  0  0  0  0  0  0  0  0  0  0  0
  -15.3855   22.6729  -14.8978 C   0  0  0  0  0  0  0  0  0  0  0  0
  -15.4148   22.3478  -16.2629 C   0  0  0  0  0  0  0  0  0  0  0  0
  -13.7578   23.9945  -16.6537 C   0  0  0  0  0  0  0  0  0  0  0  0
  -13.7360   24.3038  -15.3241 C   0  0  0  0  0  0  0  0  0  0  0  0
  -14.5538   23.6383  -14.4491 C   0  0  0  0  0  0  0  0  0  0  0  0
  -20.6130   18.5966  -20.5990 C   0  0  0  0  0  0  0  0  0  0  0  0
  -21.7138   18.0839  -19.9487 C   0  0  0  0  0  0  0  0  0  0  0  0
  -16.2620   21.3651  -16.6308 F   0  0  0  0  0  0  0  0  0  0  0  0
  -13.6390   23.1424  -19.2849 O   0  0  0  0  0  0  0  0  0  0  0  0
  -15.6304   21.9713  -19.2276 N   0  0  0  0  0  0  0  0  0  0  0  0
  -15.4242   21.7117  -20.6157 N   0  0  0  0  0  0  0  0  0  0  0  0
  -16.9015   22.0372  -21.4444 S   0  0  2  0  0  6  0  0  0  0  0  0
  -16.9114   21.4284  -22.8147 O   0  0  0  0  0  0  0  0  0  0  0  0
  -16.9581   23.5445  -21.6403 O   0  0  0  0  0  0  0  0  0  0  0  0
  -18.2937   21.4782  -20.5514 C   0  0  0  0  0  0  0  0  0  0  0  0
  -18.9060   20.3001  -20.8924 C   0  0  0  0  0  0  0  0  0  0  0  0
  -20.0005   19.7806  -20.2534 C   0  0  0  0  0  0  0  0  0  0  0  0
  -22.2118   18.8117  -18.8990 C   0  0  0  0  0  0  0  0  0  0  0  0
  -21.6326   19.9985  -18.5194 C   0  0  0  0  0  0  0  0  0  0  0  0
  -20.5169   20.5149  -19.1811 C   0  0  0  0  0  0  0  0  0  0  0  0
  -19.9257   21.7047  -18.8106 C   0  0  0  0  0  0  0  0  0  0  0  0
  -18.8160   22.2002  -19.4831 C   0  0  0  0  0  0  0  0  0  0  0  0
  1  2  1  0
  1 11  2  0
 12  1  1  0
  2  4  1  0
  2  5  2  0
  4  3  2  0
  3  7  1  0
  4 10  1  0
  5  6  1  0
  6  7  2  0
  8  9  2  0
 19  8  1  0
  9 20  1  0
 13 12  1  0
 14 13  1  1
 14 15  2  0
 14 16  2  0
 17 14  1  0
 18 17  1  0
 17 24  2  0
 18 19  2  0
 19 22  1  0
 20 21  2  0
 21 22  1  0
 22 23  2  0
 23 24  1  0
M  END
$$$$
