
     RDKit          3D

 24 26  0  0  0  0  0  0  0  0999 V2000
  -18.7795   24.2468  -23.7726 C   0  0  0  0  0  0  0  0  0  0  0  0
  -20.1696   24.6189  -23.5873 C   0  0  0  0  0  0  0  0  0  0  0  0
  -22.0580   25.1815  -22.2188 C   0  0  0  0  0  0  0  0  0  0  0  0
  -20.7042   24.8385  -22.3577 C   0  0  0  0  0  0  0  0  0  0  0  0
  -21.0059   24.7453  -24.7051 C   0  0  0  0  0  0  0  0  0  0  0  0
  -22.3216   25.0796  -24.5603 C   0  0  0  0  0  0  0  0  0  0  0  0
  -22.8432   25.2969  -23.3120 C   0  0  0  0  0  0  0  0  0  0  0  0
  -17.2346   22.2394  -16.8809 C   0  0  0  0  0  0  0  0  0  0  0  0
  -17.8669   21.5135  -15.8957 C   0  0  0  0  0  0  0  0  0  0  0  0
  -19.9833   24.7551  -21.2209 F   0  0  0  0  0  0  0  0  0  0  0  0
  -18.3272   24.1748  -24.9847 O   0  0  0  0  0  0  0  0  0  0  0  0
  -17.8788   23.9541  -22.7285 N   0  0  0  0  0  0  0  0  0  0  0  0
  -16.6096   23.4242  -23.1092 N   0  0  0  0  0  0  0  0  0  0  0  0
  -15.6779   23.1901  -21.6768 S   0  0  2  0  0  6  0  0  0  0  0  0
  -15.3038   24.4960  -21.0419 O   0  0  0  0  0  0  0  0  0  0  0  0
  -14.3774   22.5343  -22.1156 O   0  0  0  0  0  0  0  0  0  0  0  0
  -16.5077   22.1935  -20.5078 C   0  0  0  0  0  0  0  0  0  0  0  0
  -16.5594   22.5707  -19.1909 C   0  0  0  0  0  0  0  0  0  0  0  0
  -17.1848   21.8572  -18.2030 C   0  0  0  0  0  0  0  0  0  0  0  0
  -18.4755   20.3455  -16.2764 C   0  0  0  0  0  0  0  0  0  0  0  0
  -18.4510   19.9254  -17.5845 C   0  0  0  0  0  0  0  0  0  0  0  0
  -17.8090   20.6640  -18.5802 C   0  0  0  0  0  0  0  0  0  0  0  0
  -17.7767   20.2541  -19.8968 C   0  0  0  0  0  0  0  0  0  0  0  0
  -17.1321   21.0048  -20.8715 C   0  0  0  0  0  0  0  0  0  0  0  0
  1  2  1  0
  1 11  2  0
 12  1  1  0
  2  4  1  0
  2  5  2  0
  4  3  2  0
  3  7  1  0
  4 10  1  0
  5  6  1  0
  6  7  2  0
  8  9  2  0
 19  8  1  0
  9 20  1  0
 13 12  1  0
 14 13  1  6
 14 15  2  0
 14 16  2  0
 17 14  1  0
 18 17  1  0
 17 24  2  0
 18 19  2  0
 19 22  1  0
 20 21  2  0
 21 22  1  0
 22 23  2  0
 23 24  1  0
M  END
$$$$
