
     RDKit          3D

 24 26  0  0  0  0  0  0  0  0999 V2000
  -16.0193   28.7263  -12.3059 C   0  0  0  0  0  0  0  0  0  0  0  0
  -15.5437   27.3487  -12.4915 C   0  0  0  0  0  0  0  0  0  0  0  0
  -14.6846   25.4766  -13.7343 C   0  0  0  0  0  0  0  0  0  0  0  0
  -15.0776   26.8281  -13.6688 C   0  0  0  0  0  0  0  0  0  0  0  0
  -15.5987   26.4799  -11.4015 C   0  0  0  0  0  0  0  0  0  0  0  0
  -15.2212   25.1657  -11.4482 C   0  0  0  0  0  0  0  0  0  0  0  0
  -14.7576   24.6625  -12.6381 C   0  0  0  0  0  0  0  0  0  0  0  0
  -22.5312   28.9272  -10.2789 C   0  0  0  0  0  0  0  0  0  0  0  0
  -23.7668   28.7396  -10.9176 C   0  0  0  0  0  0  0  0  0  0  0  0
  -14.9641   27.5869  -14.7589 F   0  0  0  0  0  0  0  0  0  0  0  0
  -16.3192   29.3926  -13.3252 O   0  0  0  0  0  0  0  0  0  0  0  0
  -16.1682   29.3703  -11.0564 N   0  0  0  0  0  0  0  0  0  0  0  0
  -16.5376   30.6260  -10.7452 N   0  0  0  0  0  0  0  0  0  0  0  0
  -17.8481   31.0538   -9.8833 S   0  0  2  0  0  6  0  0  0  0  0  0
  -17.7902   32.5384   -9.5015 O   0  0  0  0  0  0  0  0  0  0  0  0
  -17.9969   30.2884   -8.5542 O   0  0  0  0  0  0  0  0  0  0  0  0
  -19.3700   30.7881  -10.7099 C   0  0  0  0  0  0  0  0  0  0  0  0
  -20.3597   29.9714  -10.2255 C   0  0  0  0  0  0  0  0  0  0  0  0
  -21.5788   29.7579  -10.8333 C   0  0  0  0  0  0  0  0  0  0  0  0
  -24.0143   29.3902  -12.0968 C   0  0  0  0  0  0  0  0  0  0  0  0
  -23.0305   30.2275  -12.6385 C   0  0  0  0  0  0  0  0  0  0  0  0
  -21.8332   30.4169  -12.0300 C   0  0  0  0  0  0  0  0  0  0  0  0
  -20.8295   31.2544  -12.5360 C   0  0  0  0  0  0  0  0  0  0  0  0
  -19.6453   31.4365  -11.9072 C   0  0  0  0  0  0  0  0  0  0  0  0
  1  2  1  0
  1 11  2  0
 12  1  1  0
  2  4  1  0
  2  5  2  0
  4  3  2  0
  3  7  1  0
  4 10  1  0
  5  6  1  0
  6  7  2  0
  8  9  2  0
 19  8  1  0
  9 20  1  0
 13 12  1  0
 14 13  1  6
 14 15  2  0
 14 16  2  0
 17 14  1  0
 18 17  1  0
 17 24  2  0
 18 19  2  0
 19 22  1  0
 20 21  2  0
 21 22  1  0
 22 23  2  0
 23 24  1  0
M  END
$$$$
