
     RDKit          3D

 24 26  0  0  0  0  0  0  0  0999 V2000
  -16.7707   25.4172  -22.7638 C   0  0  0  0  0  0  0  0  0  0  0  0
  -17.5588   25.5878  -23.9700 C   0  0  0  0  0  0  0  0  0  0  0  0
  -19.6390   25.8734  -25.1306 C   0  0  0  0  0  0  0  0  0  0  0  0
  -18.9100   25.7264  -23.9402 C   0  0  0  0  0  0  0  0  0  0  0  0
  -16.9196   25.5967  -25.2174 C   0  0  0  0  0  0  0  0  0  0  0  0
  -17.6369   25.7405  -26.3701 C   0  0  0  0  0  0  0  0  0  0  0  0
  -18.9992   25.8786  -26.3204 C   0  0  0  0  0  0  0  0  0  0  0  0
  -18.2939   22.0278  -17.2932 C   0  0  0  0  0  0  0  0  0  0  0  0
  -19.4770   21.5559  -16.7686 C   0  0  0  0  0  0  0  0  0  0  0  0
  -19.6188   25.7436  -22.7929 F   0  0  0  0  0  0  0  0  0  0  0  0
  -17.2104   25.9565  -21.6707 O   0  0  0  0  0  0  0  0  0  0  0  0
  -15.5553   24.7070  -22.6905 N   0  0  0  0  0  0  0  0  0  0  0  0
  -14.9740   24.5674  -21.3946 N   0  0  0  0  0  0  0  0  0  0  0  0
  -14.8829   22.8842  -21.0294 S   0  0  2  0  0  6  0  0  0  0  0  0
  -13.8200   22.5969  -20.0115 O   0  0  0  0  0  0  0  0  0  0  0  0
  -14.4511   22.1915  -22.3130 O   0  0  0  0  0  0  0  0  0  0  0  0
  -16.4095   22.2490  -20.4689 C   0  0  0  0  0  0  0  0  0  0  0  0
  -16.7661   22.3697  -19.1508 C   0  0  0  0  0  0  0  0  0  0  0  0
  -17.9392   21.9046  -18.6182 C   0  0  0  0  0  0  0  0  0  0  0  0
  -20.3364   20.9306  -17.6346 C   0  0  0  0  0  0  0  0  0  0  0  0
  -20.0237   20.7854  -18.9647 C   0  0  0  0  0  0  0  0  0  0  0  0
  -18.8234   21.2650  -19.4926 C   0  0  0  0  0  0  0  0  0  0  0  0
  -18.4969   21.1260  -20.8255 C   0  0  0  0  0  0  0  0  0  0  0  0
  -17.2968   21.6109  -21.3296 C   0  0  0  0  0  0  0  0  0  0  0  0
  1  2  1  0
  1 11  2  0
 12  1  1  0
  2  4  1  0
  2  5  2  0
  4  3  2  0
  3  7  1  0
  4 10  1  0
  5  6  1  0
  6  7  2  0
  8  9  2  0
 19  8  1  0
  9 20  1  0
 13 12  1  0
 14 13  1  6
 14 15  2  0
 14 16  2  0
 17 14  1  0
 18 17  1  0
 17 24  2  0
 18 19  2  0
 19 22  1  0
 20 21  2  0
 21 22  1  0
 22 23  2  0
 23 24  1  0
M  END
$$$$
