
     RDKit          3D

 24 26  0  0  0  0  0  0  0  0999 V2000
  -17.5026   21.5733  -19.9621 C   0  0  0  0  0  0  0  0  0  0  0  0
  -18.1653   21.3520  -18.6905 C   0  0  0  0  0  0  0  0  0  0  0  0
  -18.3435   21.6030  -16.3112 C   0  0  0  0  0  0  0  0  0  0  0  0
  -17.6819   21.8526  -17.5236 C   0  0  0  0  0  0  0  0  0  0  0  0
  -19.3374   20.5844  -18.6466 C   0  0  0  0  0  0  0  0  0  0  0  0
  -19.9743   20.3470  -17.4626 C   0  0  0  0  0  0  0  0  0  0  0  0
  -19.4716   20.8599  -16.2957 C   0  0  0  0  0  0  0  0  0  0  0  0
  -10.8599   21.1288  -21.2490 C   0  0  0  0  0  0  0  0  0  0  0  0
   -9.7166   20.6795  -20.6257 C   0  0  0  0  0  0  0  0  0  0  0  0
  -16.5698   22.6129  -17.4585 F   0  0  0  0  0  0  0  0  0  0  0  0
  -17.5917   20.6455  -20.8622 O   0  0  0  0  0  0  0  0  0  0  0  0
  -16.7634   22.7268  -20.2942 N   0  0  0  0  0  0  0  0  0  0  0  0
  -16.3166   22.8323  -21.6454 N   0  0  0  0  0  0  0  0  0  0  0  0
  -15.0714   24.0243  -21.7040 S   0  0  2  0  0  6  0  0  0  0  0  0
  -15.5459   25.3447  -21.1750 O   0  0  0  0  0  0  0  0  0  0  0  0
  -14.7530   24.2373  -23.1761 O   0  0  0  0  0  0  0  0  0  0  0  0
  -13.6441   23.5282  -20.8294 C   0  0  0  0  0  0  0  0  0  0  0  0
  -12.8221   22.5582  -21.3417 C   0  0  0  0  0  0  0  0  0  0  0  0
  -11.6833   22.1036  -20.7312 C   0  0  0  0  0  0  0  0  0  0  0  0
   -9.3995   21.2502  -19.4202 C   0  0  0  0  0  0  0  0  0  0  0  0
  -10.1921   22.2262  -18.8659 C   0  0  0  0  0  0  0  0  0  0  0  0
  -11.3502   22.6790  -19.5008 C   0  0  0  0  0  0  0  0  0  0  0  0
  -12.1548   23.6578  -18.9558 C   0  0  0  0  0  0  0  0  0  0  0  0
  -13.3029   24.0934  -19.6050 C   0  0  0  0  0  0  0  0  0  0  0  0
  1  2  1  0
  1 11  2  0
 12  1  1  0
  2  4  1  0
  2  5  2  0
  4  3  2  0
  3  7  1  0
  4 10  1  0
  5  6  1  0
  6  7  2  0
  8  9  2  0
 19  8  1  0
  9 20  1  0
 13 12  1  0
 14 13  1  6
 14 15  2  0
 14 16  2  0
 17 14  1  0
 18 17  1  0
 17 24  2  0
 18 19  2  0
 19 22  1  0
 20 21  2  0
 21 22  1  0
 22 23  2  0
 23 24  1  0
M  END
$$$$
