
     RDKit          3D

 24 26  0  0  0  0  0  0  0  0999 V2000
  -17.5964   23.2018  -18.2834 C   0  0  0  0  0  0  0  0  0  0  0  0
  -17.4509   22.1929  -17.2253 C   0  0  0  0  0  0  0  0  0  0  0  0
  -18.1799   20.8346  -15.3784 C   0  0  0  0  0  0  0  0  0  0  0  0
  -18.4504   21.7837  -16.3840 C   0  0  0  0  0  0  0  0  0  0  0  0
  -16.1929   21.6240  -17.0255 C   0  0  0  0  0  0  0  0  0  0  0  0
  -15.9136   20.7017  -16.0544 C   0  0  0  0  0  0  0  0  0  0  0  0
  -16.9291   20.3052  -15.2204 C   0  0  0  0  0  0  0  0  0  0  0  0
  -12.2447   20.8101  -23.4891 C   0  0  0  0  0  0  0  0  0  0  0  0
  -11.8767   19.5962  -24.0898 C   0  0  0  0  0  0  0  0  0  0  0  0
  -19.6921   22.2514  -16.5130 F   0  0  0  0  0  0  0  0  0  0  0  0
  -18.2484   24.2417  -18.0257 O   0  0  0  0  0  0  0  0  0  0  0  0
  -17.0550   23.0945  -19.5847 N   0  0  0  0  0  0  0  0  0  0  0  0
  -16.9560   23.9941  -20.5801 N   0  0  0  0  0  0  0  0  0  0  0  0
  -15.7167   24.1376  -21.6227 S   0  0  2  0  0  6  0  0  0  0  0  0
  -14.4653   24.6712  -20.9138 O   0  0  0  0  0  0  0  0  0  0  0  0
  -15.9873   25.1168  -22.7813 O   0  0  0  0  0  0  0  0  0  0  0  0
  -15.2675   22.6410  -22.4152 C   0  0  0  0  0  0  0  0  0  0  0  0
  -13.9687   22.2836  -22.6734 C   0  0  0  0  0  0  0  0  0  0  0  0
  -13.5751   21.1049  -23.2706 C   0  0  0  0  0  0  0  0  0  0  0  0
  -12.8539   18.7096  -24.4564 C   0  0  0  0  0  0  0  0  0  0  0  0
  -14.1968   19.0331  -24.2238 C   0  0  0  0  0  0  0  0  0  0  0  0
  -14.5643   20.2028  -23.6436 C   0  0  0  0  0  0  0  0  0  0  0  0
  -15.8960   20.5562  -23.3855 C   0  0  0  0  0  0  0  0  0  0  0  0
  -16.2397   21.7249  -22.7965 C   0  0  0  0  0  0  0  0  0  0  0  0
  1  2  1  0
  1 11  2  0
 12  1  1  0
  2  4  1  0
  2  5  2  0
  4  3  2  0
  3  7  1  0
  4 10  1  0
  5  6  1  0
  6  7  2  0
  8  9  2  0
 19  8  1  0
  9 20  1  0
 13 12  1  0
 14 13  1  1
 14 15  2  0
 14 16  2  0
 17 14  1  0
 18 17  1  0
 17 24  2  0
 18 19  2  0
 19 22  1  0
 20 21  2  0
 21 22  1  0
 22 23  2  0
 23 24  1  0
M  END
$$$$
