
     RDKit          3D

 24 26  0  0  0  0  0  0  0  0999 V2000
   -5.6681   13.9704  -19.3276 C   0  0  0  0  0  0  0  0  0  0  0  0
   -6.5841   13.8110  -20.4415 C   0  0  0  0  0  0  0  0  0  0  0  0
   -8.6445   14.2634  -21.5842 C   0  0  0  0  0  0  0  0  0  0  0  0
   -7.7786   14.4561  -20.4966 C   0  0  0  0  0  0  0  0  0  0  0  0
   -6.2453   12.9536  -21.4973 C   0  0  0  0  0  0  0  0  0  0  0  0
   -7.0940   12.7725  -22.5514 C   0  0  0  0  0  0  0  0  0  0  0  0
   -8.2947   13.4313  -22.5893 C   0  0  0  0  0  0  0  0  0  0  0  0
   -9.7856   15.3813  -13.3188 C   0  0  0  0  0  0  0  0  0  0  0  0
  -10.5344   14.7986  -12.3202 C   0  0  0  0  0  0  0  0  0  0  0  0
   -8.1932   15.3113  -19.5396 F   0  0  0  0  0  0  0  0  0  0  0  0
   -4.4492   13.5587  -19.4810 O   0  0  0  0  0  0  0  0  0  0  0  0
   -6.0058   14.5407  -18.0835 N   0  0  0  0  0  0  0  0  0  0  0  0
   -4.9223   14.9999  -17.2760 N   0  0  0  0  0  0  0  0  0  0  0  0
   -5.5524   16.1175  -16.1233 S   0  0  2  0  0  6  0  0  0  0  0  0
   -6.4542   17.1268  -16.7689 O   0  0  0  0  0  0  0  0  0  0  0  0
   -4.3592   16.8886  -15.5797 O   0  0  0  0  0  0  0  0  0  0  0  0
   -6.4101   15.3162  -14.8308 C   0  0  0  0  0  0  0  0  0  0  0  0
   -7.7178   15.6330  -14.5688 C   0  0  0  0  0  0  0  0  0  0  0  0
   -8.4720   15.0604  -13.5790 C   0  0  0  0  0  0  0  0  0  0  0  0
   -9.9152   13.8461  -11.5529 C   0  0  0  0  0  0  0  0  0  0  0  0
   -8.6058   13.4945  -11.7769 C   0  0  0  0  0  0  0  0  0  0  0  0
   -7.8502   14.0874  -12.7901 C   0  0  0  0  0  0  0  0  0  0  0  0
   -6.5353   13.7440  -13.0259 C   0  0  0  0  0  0  0  0  0  0  0  0
   -5.8019   14.3470  -14.0398 C   0  0  0  0  0  0  0  0  0  0  0  0
  1  2  1  0
  1 11  2  0
 12  1  1  0
  2  4  1  0
  2  5  2  0
  4  3  2  0
  3  7  1  0
  4 10  1  0
  5  6  1  0
  6  7  2  0
  8  9  2  0
 19  8  1  0
  9 20  1  0
 13 12  1  0
 14 13  1  6
 14 15  2  0
 14 16  2  0
 17 14  1  0
 18 17  1  0
 17 24  2  0
 18 19  2  0
 19 22  1  0
 20 21  2  0
 21 22  1  0
 22 23  2  0
 23 24  1  0
M  END
$$$$
