
     RDKit          3D

 24 26  0  0  0  0  0  0  0  0999 V2000
  -18.0126   24.1794  -23.2474 C   0  0  0  0  0  0  0  0  0  0  0  0
  -19.1004   25.1024  -23.5114 C   0  0  0  0  0  0  0  0  0  0  0  0
  -21.4275   25.6785  -23.6056 C   0  0  0  0  0  0  0  0  0  0  0  0
  -20.4023   24.7622  -23.3236 C   0  0  0  0  0  0  0  0  0  0  0  0
  -18.8146   26.3880  -23.9914 C   0  0  0  0  0  0  0  0  0  0  0  0
  -19.8184   27.2727  -24.2627 C   0  0  0  0  0  0  0  0  0  0  0  0
  -21.1256   26.9115  -24.0676 C   0  0  0  0  0  0  0  0  0  0  0  0
  -15.1641   28.7124  -21.2736 C   0  0  0  0  0  0  0  0  0  0  0  0
  -14.7378   29.8930  -20.7061 C   0  0  0  0  0  0  0  0  0  0  0  0
  -20.7832   23.5565  -22.8542 F   0  0  0  0  0  0  0  0  0  0  0  0
  -17.9446   23.1013  -23.9631 O   0  0  0  0  0  0  0  0  0  0  0  0
  -17.0193   24.3662  -22.2648 N   0  0  0  0  0  0  0  0  0  0  0  0
  -16.0284   23.3449  -22.1557 N   0  0  0  0  0  0  0  0  0  0  0  0
  -14.6031   23.8971  -22.9547 S   0  0  2  0  0  6  0  0  0  0  0  0
  -14.8475   24.1406  -24.4140 O   0  0  0  0  0  0  0  0  0  0  0  0
  -13.5972   22.7594  -22.8685 O   0  0  0  0  0  0  0  0  0  0  0  0
  -13.9593   25.3466  -22.2247 C   0  0  0  0  0  0  0  0  0  0  0  0
  -14.7647   26.4387  -22.0303 C   0  0  0  0  0  0  0  0  0  0  0  0
  -14.3520   27.6173  -21.4673 C   0  0  0  0  0  0  0  0  0  0  0  0
  -13.4243   29.9589  -20.3189 C   0  0  0  0  0  0  0  0  0  0  0  0
  -12.5779   28.8905  -20.4930 C   0  0  0  0  0  0  0  0  0  0  0  0
  -13.0138   27.6956  -21.0686 C   0  0  0  0  0  0  0  0  0  0  0  0
  -12.1751   26.6156  -21.2492 C   0  0  0  0  0  0  0  0  0  0  0  0
  -12.6301   25.4359  -21.8243 C   0  0  0  0  0  0  0  0  0  0  0  0
  1  2  1  0
  1 11  2  0
 12  1  1  0
  2  4  1  0
  2  5  2  0
  4  3  2  0
  3  7  1  0
  4 10  1  0
  5  6  1  0
  6  7  2  0
  8  9  2  0
 19  8  1  0
  9 20  1  0
 13 12  1  0
 14 13  1  1
 14 15  2  0
 14 16  2  0
 17 14  1  0
 18 17  1  0
 17 24  2  0
 18 19  2  0
 19 22  1  0
 20 21  2  0
 21 22  1  0
 22 23  2  0
 23 24  1  0
M  END
$$$$
