
     RDKit          3D

 24 26  0  0  0  0  0  0  0  0999 V2000
  -15.4618   22.0843  -19.5924 C   0  0  0  0  0  0  0  0  0  0  0  0
  -15.5062   22.6044  -18.2190 C   0  0  0  0  0  0  0  0  0  0  0  0
  -15.5928   24.3093  -16.5239 C   0  0  0  0  0  0  0  0  0  0  0  0
  -15.5984   23.9277  -17.8803 C   0  0  0  0  0  0  0  0  0  0  0  0
  -15.4116   21.6942  -17.1661 C   0  0  0  0  0  0  0  0  0  0  0  0
  -15.4048   22.0479  -15.8446 C   0  0  0  0  0  0  0  0  0  0  0  0
  -15.4971   23.3797  -15.5257 C   0  0  0  0  0  0  0  0  0  0  0  0
  -22.0749   23.0499  -22.9408 C   0  0  0  0  0  0  0  0  0  0  0  0
  -23.3181   23.6681  -22.7356 C   0  0  0  0  0  0  0  0  0  0  0  0
  -15.7185   24.8700  -18.8155 F   0  0  0  0  0  0  0  0  0  0  0  0
  -14.4023   21.5416  -19.9870 O   0  0  0  0  0  0  0  0  0  0  0  0
  -16.5292   22.1468  -20.5169 N   0  0  0  0  0  0  0  0  0  0  0  0
  -16.5665   21.9256  -21.8435 N   0  0  0  0  0  0  0  0  0  0  0  0
  -16.9167   23.0248  -22.9890 S   0  0  2  0  0  6  0  0  0  0  0  0
  -16.9217   22.3805  -24.3812 O   0  0  0  0  0  0  0  0  0  0  0  0
  -15.9042   24.1835  -23.0711 O   0  0  0  0  0  0  0  0  0  0  0  0
  -18.4654   23.8159  -22.7763 C   0  0  0  0  0  0  0  0  0  0  0  0
  -19.6682   23.1787  -22.9448 C   0  0  0  0  0  0  0  0  0  0  0  0
  -20.9051   23.7598  -22.7615 C   0  0  0  0  0  0  0  0  0  0  0  0
  -23.3550   24.9833  -22.3563 C   0  0  0  0  0  0  0  0  0  0  0  0
  -22.1533   25.6814  -22.1815 C   0  0  0  0  0  0  0  0  0  0  0  0
  -20.9461   25.0944  -22.3763 C   0  0  0  0  0  0  0  0  0  0  0  0
  -19.7235   25.7573  -22.2009 C   0  0  0  0  0  0  0  0  0  0  0  0
  -18.5299   25.1492  -22.3915 C   0  0  0  0  0  0  0  0  0  0  0  0
  1  2  1  0
  1 11  2  0
 12  1  1  0
  2  4  1  0
  2  5  2  0
  4  3  2  0
  3  7  1  0
  4 10  1  0
  5  6  1  0
  6  7  2  0
  8  9  2  0
 19  8  1  0
  9 20  1  0
 13 12  1  0
 14 13  1  1
 14 15  2  0
 14 16  2  0
 17 14  1  0
 18 17  1  0
 17 24  2  0
 18 19  2  0
 19 22  1  0
 20 21  2  0
 21 22  1  0
 22 23  2  0
 23 24  1  0
M  END
$$$$
