
     RDKit          3D

 24 26  0  0  0  0  0  0  0  0999 V2000
  -16.8972   26.2564  -22.2680 C   0  0  0  0  0  0  0  0  0  0  0  0
  -16.5782   24.8233  -22.2154 C   0  0  0  0  0  0  0  0  0  0  0  0
  -16.9434   22.4812  -22.6265 C   0  0  0  0  0  0  0  0  0  0  0  0
  -17.3310   23.8275  -22.7775 C   0  0  0  0  0  0  0  0  0  0  0  0
  -15.4419   24.4263  -21.5102 C   0  0  0  0  0  0  0  0  0  0  0  0
  -15.0517   23.1244  -21.3543 C   0  0  0  0  0  0  0  0  0  0  0  0
  -15.8204   22.1406  -21.9247 C   0  0  0  0  0  0  0  0  0  0  0  0
  -24.3316   25.6530  -22.8990 C   0  0  0  0  0  0  0  0  0  0  0  0
  -25.2451   24.7859  -23.5182 C   0  0  0  0  0  0  0  0  0  0  0  0
  -18.4206   24.1092  -23.4920 F   0  0  0  0  0  0  0  0  0  0  0  0
  -16.0321   27.0716  -21.8679 O   0  0  0  0  0  0  0  0  0  0  0  0
  -18.1150   26.7984  -22.7383 N   0  0  0  0  0  0  0  0  0  0  0  0
  -18.5341   28.0721  -22.8485 N   0  0  0  0  0  0  0  0  0  0  0  0
  -20.0802   28.5745  -22.8648 S   0  0  2  0  0  6  0  0  0  0  0  0
  -20.2110   29.9167  -23.5960 O   0  0  0  0  0  0  0  0  0  0  0  0
  -20.6751   28.8058  -21.4623 O   0  0  0  0  0  0  0  0  0  0  0  0
  -21.1913   27.4555  -23.6284 C   0  0  0  0  0  0  0  0  0  0  0  0
  -22.3104   26.9613  -23.0082 C   0  0  0  0  0  0  0  0  0  0  0  0
  -23.2207   26.1009  -23.5845 C   0  0  0  0  0  0  0  0  0  0  0  0
  -25.0195   24.3901  -24.8096 C   0  0  0  0  0  0  0  0  0  0  0  0
  -23.8842   24.8588  -25.4830 C   0  0  0  0  0  0  0  0  0  0  0  0
  -22.9949   25.6974  -24.8951 C   0  0  0  0  0  0  0  0  0  0  0  0
  -21.8543   26.1952  -25.5401 C   0  0  0  0  0  0  0  0  0  0  0  0
  -20.9850   27.0390  -24.9375 C   0  0  0  0  0  0  0  0  0  0  0  0
  1  2  1  0
  1 11  2  0
 12  1  1  0
  2  4  1  0
  2  5  2  0
  4  3  2  0
  3  7  1  0
  4 10  1  0
  5  6  1  0
  6  7  2  0
  8  9  2  0
 19  8  1  0
  9 20  1  0
 13 12  1  0
 14 13  1  1
 14 15  2  0
 14 16  2  0
 17 14  1  0
 18 17  1  0
 17 24  2  0
 18 19  2  0
 19 22  1  0
 20 21  2  0
 21 22  1  0
 22 23  2  0
 23 24  1  0
M  END
$$$$
