
     RDKit          3D

 24 26  0  0  0  0  0  0  0  0999 V2000
  -14.6315   24.0417  -22.3894 C   0  0  0  0  0  0  0  0  0  0  0  0
  -14.3428   23.3976  -21.1010 C   0  0  0  0  0  0  0  0  0  0  0  0
  -14.8116   22.6999  -18.8468 C   0  0  0  0  0  0  0  0  0  0  0  0
  -15.2169   23.3090  -20.0511 C   0  0  0  0  0  0  0  0  0  0  0  0
  -13.0705   22.8609  -20.9028 C   0  0  0  0  0  0  0  0  0  0  0  0
  -12.6612   22.2666  -19.7405 C   0  0  0  0  0  0  0  0  0  0  0  0
  -13.5521   22.1886  -18.6992 C   0  0  0  0  0  0  0  0  0  0  0  0
  -22.2130   24.9177  -22.5144 C   0  0  0  0  0  0  0  0  0  0  0  0
  -23.3718   24.2536  -22.0833 C   0  0  0  0  0  0  0  0  0  0  0  0
  -16.4635   23.7701  -20.1535 F   0  0  0  0  0  0  0  0  0  0  0  0
  -14.0864   25.1438  -22.6368 O   0  0  0  0  0  0  0  0  0  0  0  0
  -15.4845   23.5142  -23.3855 N   0  0  0  0  0  0  0  0  0  0  0  0
  -16.0744   24.0958  -24.4457 N   0  0  0  0  0  0  0  0  0  0  0  0
  -17.4173   25.0116  -24.4125 S   0  0  2  0  0  6  0  0  0  0  0  0
  -17.7441   25.5530  -25.8101 O   0  0  0  0  0  0  0  0  0  0  0  0
  -17.3044   26.2503  -23.5030 O   0  0  0  0  0  0  0  0  0  0  0  0
  -18.8433   24.1753  -23.8320 C   0  0  0  0  0  0  0  0  0  0  0  0
  -19.9668   24.8211  -23.3828 C   0  0  0  0  0  0  0  0  0  0  0  0
  -21.1160   24.1987  -22.9434 C   0  0  0  0  0  0  0  0  0  0  0  0
  -23.3994   22.8846  -22.0933 C   0  0  0  0  0  0  0  0  0  0  0  0
  -22.2724   22.1784  -22.5330 C   0  0  0  0  0  0  0  0  0  0  0  0
  -21.1473   22.8093  -22.9524 C   0  0  0  0  0  0  0  0  0  0  0  0
  -20.0050   22.1372  -23.4090 C   0  0  0  0  0  0  0  0  0  0  0  0
  -18.8963   22.7872  -23.8322 C   0  0  0  0  0  0  0  0  0  0  0  0
  1  2  1  0
  1 11  2  0
 12  1  1  0
  2  4  1  0
  2  5  2  0
  4  3  2  0
  3  7  1  0
  4 10  1  0
  5  6  1  0
  6  7  2  0
  8  9  2  0
 19  8  1  0
  9 20  1  0
 13 12  1  0
 14 13  1  6
 14 15  2  0
 14 16  2  0
 17 14  1  0
 18 17  1  0
 17 24  2  0
 18 19  2  0
 19 22  1  0
 20 21  2  0
 21 22  1  0
 22 23  2  0
 23 24  1  0
M  END
$$$$
