
     RDKit          3D

 24 26  0  0  0  0  0  0  0  0999 V2000
  -16.3474   22.9093  -18.9848 C   0  0  0  0  0  0  0  0  0  0  0  0
  -16.5069   22.1276  -17.7512 C   0  0  0  0  0  0  0  0  0  0  0  0
  -16.2170   21.6411  -15.4130 C   0  0  0  0  0  0  0  0  0  0  0  0
  -16.0368   22.4953  -16.5191 C   0  0  0  0  0  0  0  0  0  0  0  0
  -17.1544   20.8945  -17.8313 C   0  0  0  0  0  0  0  0  0  0  0  0
  -17.3376   20.0537  -16.7677 C   0  0  0  0  0  0  0  0  0  0  0  0
  -16.8580   20.4401  -15.5410 C   0  0  0  0  0  0  0  0  0  0  0  0
  -21.3211   24.9798  -23.3053 C   0  0  0  0  0  0  0  0  0  0  0  0
  -22.7193   25.0068  -23.1865 C   0  0  0  0  0  0  0  0  0  0  0  0
  -15.4271   23.6668  -16.3374 F   0  0  0  0  0  0  0  0  0  0  0  0
  -16.4159   24.1592  -18.9079 O   0  0  0  0  0  0  0  0  0  0  0  0
  -16.1205   22.3607  -20.2676 N   0  0  0  0  0  0  0  0  0  0  0  0
  -15.8891   22.9497  -21.4549 N   0  0  0  0  0  0  0  0  0  0  0  0
  -16.7203   22.6959  -22.8289 S   0  0  2  0  0  6  0  0  0  0  0  0
  -16.3652   21.3338  -23.4387 O   0  0  0  0  0  0  0  0  0  0  0  0
  -16.4324   23.7327  -23.9319 O   0  0  0  0  0  0  0  0  0  0  0  0
  -18.4610   22.7410  -22.6346 C   0  0  0  0  0  0  0  0  0  0  0  0
  -19.2351   23.8094  -23.0093 C   0  0  0  0  0  0  0  0  0  0  0  0
  -20.6079   23.8714  -22.8963 C   0  0  0  0  0  0  0  0  0  0  0  0
  -23.3656   23.9207  -22.6594 C   0  0  0  0  0  0  0  0  0  0  0  0
  -22.6182   22.8084  -22.2514 C   0  0  0  0  0  0  0  0  0  0  0  0
  -21.2669   22.7707  -22.3620 C   0  0  0  0  0  0  0  0  0  0  0  0
  -20.4870   21.6722  -21.9746 C   0  0  0  0  0  0  0  0  0  0  0  0
  -19.1401   21.6520  -22.1028 C   0  0  0  0  0  0  0  0  0  0  0  0
  1  2  1  0
  1 11  2  0
 12  1  1  0
  2  4  1  0
  2  5  2  0
  4  3  2  0
  3  7  1  0
  4 10  1  0
  5  6  1  0
  6  7  2  0
  8  9  2  0
 19  8  1  0
  9 20  1  0
 13 12  1  0
 14 13  1  1
 14 15  2  0
 14 16  2  0
 17 14  1  0
 18 17  1  0
 17 24  2  0
 18 19  2  0
 19 22  1  0
 20 21  2  0
 21 22  1  0
 22 23  2  0
 23 24  1  0
M  END
$$$$
