
     RDKit          3D

 24 26  0  0  0  0  0  0  0  0999 V2000
  -19.3649   24.0312  -23.2999 C   0  0  0  0  0  0  0  0  0  0  0  0
  -20.7819   24.2396  -22.9730 C   0  0  0  0  0  0  0  0  0  0  0  0
  -23.0102   23.5708  -22.3604 C   0  0  0  0  0  0  0  0  0  0  0  0
  -21.6608   23.2535  -22.6130 C   0  0  0  0  0  0  0  0  0  0  0  0
  -21.2968   25.5328  -23.0669 C   0  0  0  0  0  0  0  0  0  0  0  0
  -22.6036   25.8576  -22.8251 C   0  0  0  0  0  0  0  0  0  0  0  0
  -23.4691   24.8545  -22.4665 C   0  0  0  0  0  0  0  0  0  0  0  0
  -16.6597   20.6578  -17.1633 C   0  0  0  0  0  0  0  0  0  0  0  0
  -16.5370   20.6900  -15.7655 C   0  0  0  0  0  0  0  0  0  0  0  0
  -21.2572   21.9909  -22.4719 F   0  0  0  0  0  0  0  0  0  0  0  0
  -19.0598   23.7980  -24.4939 O   0  0  0  0  0  0  0  0  0  0  0  0
  -18.3039   24.0722  -22.3668 N   0  0  0  0  0  0  0  0  0  0  0  0
  -16.9797   23.8922  -22.5224 N   0  0  0  0  0  0  0  0  0  0  0  0
  -16.0910   22.6993  -21.8664 S   0  0  2  0  0  6  0  0  0  0  0  0
  -14.6591   22.7188  -22.4165 O   0  0  0  0  0  0  0  0  0  0  0  0
  -16.6302   21.2862  -22.1612 O   0  0  0  0  0  0  0  0  0  0  0  0
  -15.9780   22.7649  -20.1192 C   0  0  0  0  0  0  0  0  0  0  0  0
  -16.3603   21.7346  -19.2986 C   0  0  0  0  0  0  0  0  0  0  0  0
  -16.2626   21.7391  -17.9233 C   0  0  0  0  0  0  0  0  0  0  0  0
  -16.0192   21.8073  -15.1665 C   0  0  0  0  0  0  0  0  0  0  0  0
  -15.6239   22.8914  -15.9607 C   0  0  0  0  0  0  0  0  0  0  0  0
  -15.7373   22.8713  -17.3122 C   0  0  0  0  0  0  0  0  0  0  0  0
  -15.3429   23.9318  -18.1398 C   0  0  0  0  0  0  0  0  0  0  0  0
  -15.4561   23.8867  -19.4874 C   0  0  0  0  0  0  0  0  0  0  0  0
  1  2  1  0
  1 11  2  0
 12  1  1  0
  2  4  1  0
  2  5  2  0
  4  3  2  0
  3  7  1  0
  4 10  1  0
  5  6  1  0
  6  7  2  0
  8  9  2  0
 19  8  1  0
  9 20  1  0
 13 12  1  0
 14 13  1  6
 14 15  2  0
 14 16  2  0
 17 14  1  0
 18 17  1  0
 17 24  2  0
 18 19  2  0
 19 22  1  0
 20 21  2  0
 21 22  1  0
 22 23  2  0
 23 24  1  0
M  END
$$$$
