
     RDKit          3D

 24 26  0  0  0  0  0  0  0  0999 V2000
  -17.2417   22.7395  -18.7647 C   0  0  0  0  0  0  0  0  0  0  0  0
  -17.2780   21.5894  -17.8513 C   0  0  0  0  0  0  0  0  0  0  0  0
  -16.9684   20.4430  -15.7590 C   0  0  0  0  0  0  0  0  0  0  0  0
  -16.9305   21.6234  -16.5275 C   0  0  0  0  0  0  0  0  0  0  0  0
  -17.6596   20.3503  -18.3662 C   0  0  0  0  0  0  0  0  0  0  0  0
  -17.7018   19.1954  -17.6341 C   0  0  0  0  0  0  0  0  0  0  0  0
  -17.3487   19.2503  -16.3089 C   0  0  0  0  0  0  0  0  0  0  0  0
  -13.6343   27.1962  -24.8692 C   0  0  0  0  0  0  0  0  0  0  0  0
  -12.4872   27.9873  -25.0379 C   0  0  0  0  0  0  0  0  0  0  0  0
  -16.5765   22.7659  -15.9387 F   0  0  0  0  0  0  0  0  0  0  0  0
  -17.6699   23.8419  -18.3475 O   0  0  0  0  0  0  0  0  0  0  0  0
  -16.7578   22.7043  -20.0923 N   0  0  0  0  0  0  0  0  0  0  0  0
  -16.9516   23.5404  -21.1285 N   0  0  0  0  0  0  0  0  0  0  0  0
  -16.2962   23.3991  -22.6096 S   0  0  2  0  0  6  0  0  0  0  0  0
  -17.2988   23.8172  -23.6928 O   0  0  0  0  0  0  0  0  0  0  0  0
  -15.8718   21.9620  -22.9687 O   0  0  0  0  0  0  0  0  0  0  0  0
  -14.8456   24.3524  -22.8475 C   0  0  0  0  0  0  0  0  0  0  0  0
  -14.7579   25.3815  -23.7500 C   0  0  0  0  0  0  0  0  0  0  0  0
  -13.6439   26.1697  -23.9469 C   0  0  0  0  0  0  0  0  0  0  0  0
  -11.3791   27.7271  -24.2766 C   0  0  0  0  0  0  0  0  0  0  0  0
  -11.4148   26.6791  -23.3479 C   0  0  0  0  0  0  0  0  0  0  0  0
  -12.5176   25.9084  -23.1758 C   0  0  0  0  0  0  0  0  0  0  0  0
  -12.5942   24.8589  -22.2498 C   0  0  0  0  0  0  0  0  0  0  0  0
  -13.7084   24.1085  -22.0877 C   0  0  0  0  0  0  0  0  0  0  0  0
  1  2  1  0
  1 11  2  0
 12  1  1  0
  2  4  1  0
  2  5  2  0
  4  3  2  0
  3  7  1  0
  4 10  1  0
  5  6  1  0
  6  7  2  0
  8  9  2  0
 19  8  1  0
  9 20  1  0
 13 12  1  0
 14 13  1  1
 14 15  2  0
 14 16  2  0
 17 14  1  0
 18 17  1  0
 17 24  2  0
 18 19  2  0
 19 22  1  0
 20 21  2  0
 21 22  1  0
 22 23  2  0
 23 24  1  0
M  END
$$$$
