
     RDKit          3D

 24 26  0  0  0  0  0  0  0  0999 V2000
  -23.0871   30.0838  -14.0176 C   0  0  0  0  0  0  0  0  0  0  0  0
  -23.8840   28.9496  -14.4459 C   0  0  0  0  0  0  0  0  0  0  0  0
  -24.1309   26.6875  -15.2061 C   0  0  0  0  0  0  0  0  0  0  0  0
  -23.3269   27.7566  -14.7811 C   0  0  0  0  0  0  0  0  0  0  0  0
  -25.2769   29.0786  -14.5362 C   0  0  0  0  0  0  0  0  0  0  0  0
  -26.0510   28.0330  -14.9504 C   0  0  0  0  0  0  0  0  0  0  0  0
  -25.4711   26.8375  -15.2848 C   0  0  0  0  0  0  0  0  0  0  0  0
  -16.7464   29.0560  -10.6666 C   0  0  0  0  0  0  0  0  0  0  0  0
  -15.7962   28.9732   -9.6727 C   0  0  0  0  0  0  0  0  0  0  0  0
  -21.9998   27.5249  -14.7170 F   0  0  0  0  0  0  0  0  0  0  0  0
  -23.7074   31.1113  -13.5294 O   0  0  0  0  0  0  0  0  0  0  0  0
  -21.6813   30.1542  -14.0944 N   0  0  0  0  0  0  0  0  0  0  0  0
  -21.0758   31.3608  -13.6315 N   0  0  0  0  0  0  0  0  0  0  0  0
  -19.4837   31.4453  -14.2896 S   0  0  2  0  0  6  0  0  0  0  0  0
  -19.3114   32.6506  -15.1648 O   0  0  0  0  0  0  0  0  0  0  0  0
  -19.3293   30.2301  -15.1914 O   0  0  0  0  0  0  0  0  0  0  0  0
  -18.2576   31.4511  -13.0467 C   0  0  0  0  0  0  0  0  0  0  0  0
  -17.9723   30.3042  -12.3521 C   0  0  0  0  0  0  0  0  0  0  0  0
  -17.0302   30.2101  -11.3623 C   0  0  0  0  0  0  0  0  0  0  0  0
  -15.1049   30.1192   -9.3753 C   0  0  0  0  0  0  0  0  0  0  0  0
  -15.3550   31.2934  -10.0439 C   0  0  0  0  0  0  0  0  0  0  0  0
  -16.3189   31.3732  -11.0507 C   0  0  0  0  0  0  0  0  0  0  0  0
  -16.5801   32.5450  -11.7297 C   0  0  0  0  0  0  0  0  0  0  0  0
  -17.5438   32.6019  -12.7283 C   0  0  0  0  0  0  0  0  0  0  0  0
  1  2  1  0
  1 11  2  0
 12  1  1  0
  2  4  1  0
  2  5  2  0
  4  3  2  0
  3  7  1  0
  4 10  1  0
  5  6  1  0
  6  7  2  0
  8  9  2  0
 19  8  1  0
  9 20  1  0
 13 12  1  0
 14 13  1  1
 14 15  2  0
 14 16  2  0
 17 14  1  0
 18 17  1  0
 17 24  2  0
 18 19  2  0
 19 22  1  0
 20 21  2  0
 21 22  1  0
 22 23  2  0
 23 24  1  0
M  END
$$$$
