
     RDKit          3D

 24 26  0  0  0  0  0  0  0  0999 V2000
   -8.4265   16.4429  -16.5206 C   0  0  0  0  0  0  0  0  0  0  0  0
   -7.8633   15.4304  -15.6172 C   0  0  0  0  0  0  0  0  0  0  0  0
   -7.0323   14.5799  -13.5259 C   0  0  0  0  0  0  0  0  0  0  0  0
   -7.6131   15.6159  -14.2841 C   0  0  0  0  0  0  0  0  0  0  0  0
   -7.5174   14.1893  -16.1520 C   0  0  0  0  0  0  0  0  0  0  0  0
   -6.9531   13.1733  -15.4301 C   0  0  0  0  0  0  0  0  0  0  0  0
   -6.7092   13.3794  -14.0951 C   0  0  0  0  0  0  0  0  0  0  0  0
   -9.4682   17.1142  -24.7713 C   0  0  0  0  0  0  0  0  0  0  0  0
   -9.2108   16.4233  -25.9655 C   0  0  0  0  0  0  0  0  0  0  0  0
   -7.9325   16.7590  -13.6771 F   0  0  0  0  0  0  0  0  0  0  0  0
   -8.1432   17.6468  -16.3124 O   0  0  0  0  0  0  0  0  0  0  0  0
   -9.2725   16.1675  -17.6189 N   0  0  0  0  0  0  0  0  0  0  0  0
   -9.8112   16.9784  -18.5476 N   0  0  0  0  0  0  0  0  0  0  0  0
   -8.9965   17.8110  -19.6818 S   0  0  2  0  0  6  0  0  0  0  0  0
   -7.6302   18.2638  -19.1513 O   0  0  0  0  0  0  0  0  0  0  0  0
   -9.7097   19.0964  -20.1437 O   0  0  0  0  0  0  0  0  0  0  0  0
   -8.7100   16.9178  -21.1617 C   0  0  0  0  0  0  0  0  0  0  0  0
   -9.1875   17.3116  -22.3857 C   0  0  0  0  0  0  0  0  0  0  0  0
   -8.9616   16.6503  -23.5743 C   0  0  0  0  0  0  0  0  0  0  0  0
   -8.4520   15.2841  -25.9274 C   0  0  0  0  0  0  0  0  0  0  0  0
   -7.9500   14.8343  -24.6994 C   0  0  0  0  0  0  0  0  0  0  0  0
   -8.1917   15.4939  -23.5391 C   0  0  0  0  0  0  0  0  0  0  0  0
   -7.6979   15.0805  -22.2941 C   0  0  0  0  0  0  0  0  0  0  0  0
   -7.9433   15.7595  -21.1497 C   0  0  0  0  0  0  0  0  0  0  0  0
  1  2  1  0
  1 11  2  0
 12  1  1  0
  2  4  1  0
  2  5  2  0
  4  3  2  0
  3  7  1  0
  4 10  1  0
  5  6  1  0
  6  7  2  0
  8  9  2  0
 19  8  1  0
  9 20  1  0
 13 12  1  0
 14 13  1  1
 14 15  2  0
 14 16  2  0
 17 14  1  0
 18 17  1  0
 17 24  2  0
 18 19  2  0
 19 22  1  0
 20 21  2  0
 21 22  1  0
 22 23  2  0
 23 24  1  0
M  END
$$$$
