
     RDKit          3D

 24 26  0  0  0  0  0  0  0  0999 V2000
   -4.9317   14.9970  -11.6017 C   0  0  0  0  0  0  0  0  0  0  0  0
   -6.0052   14.5589  -12.5039 C   0  0  0  0  0  0  0  0  0  0  0  0
   -7.1522   14.3586  -14.6091 C   0  0  0  0  0  0  0  0  0  0  0  0
   -6.0474   14.7955  -13.8517 C   0  0  0  0  0  0  0  0  0  0  0  0
   -7.0919   13.8785  -11.9540 C   0  0  0  0  0  0  0  0  0  0  0  0
   -8.1718   13.4476  -12.6749 C   0  0  0  0  0  0  0  0  0  0  0  0
   -8.1955   13.6956  -14.0247 C   0  0  0  0  0  0  0  0  0  0  0  0
   -3.0100   22.1832  -10.8794 C   0  0  0  0  0  0  0  0  0  0  0  0
   -3.6479   23.3882  -11.2125 C   0  0  0  0  0  0  0  0  0  0  0  0
   -5.0439   15.4159  -14.4725 F   0  0  0  0  0  0  0  0  0  0  0  0
   -5.1120   14.8822  -10.3659 O   0  0  0  0  0  0  0  0  0  0  0  0
   -3.6969   15.5445  -12.0181 N   0  0  0  0  0  0  0  0  0  0  0  0
   -2.6793   16.0725  -11.3139 N   0  0  0  0  0  0  0  0  0  0  0  0
   -1.7025   17.2785  -11.7984 S   0  0  2  0  0  6  0  0  0  0  0  0
   -0.8951   16.8643  -13.0352 O   0  0  0  0  0  0  0  0  0  0  0  0
   -0.6607   17.6984  -10.7436 O   0  0  0  0  0  0  0  0  0  0  0  0
   -2.5397   18.7650  -12.1974 C   0  0  0  0  0  0  0  0  0  0  0  0
   -2.4906   19.8920  -11.4171 C   0  0  0  0  0  0  0  0  0  0  0  0
   -3.1137   21.0864  -11.7106 C   0  0  0  0  0  0  0  0  0  0  0  0
   -4.3740   23.4610  -12.3712 C   0  0  0  0  0  0  0  0  0  0  0  0
   -4.4637   22.3332  -13.1972 C   0  0  0  0  0  0  0  0  0  0  0  0
   -3.8512   21.1638  -12.8859 C   0  0  0  0  0  0  0  0  0  0  0  0
   -3.9095   20.0186  -13.6922 C   0  0  0  0  0  0  0  0  0  0  0  0
   -3.2825   18.8645  -13.3670 C   0  0  0  0  0  0  0  0  0  0  0  0
  1  2  1  0
  1 11  2  0
 12  1  1  0
  2  4  1  0
  2  5  2  0
  4  3  2  0
  3  7  1  0
  4 10  1  0
  5  6  1  0
  6  7  2  0
  8  9  2  0
 19  8  1  0
  9 20  1  0
 13 12  1  0
 14 13  1  1
 14 15  2  0
 14 16  2  0
 17 14  1  0
 18 17  1  0
 17 24  2  0
 18 19  2  0
 19 22  1  0
 20 21  2  0
 21 22  1  0
 22 23  2  0
 23 24  1  0
M  END
$$$$
