
     RDKit          3D

 24 26  0  0  0  0  0  0  0  0999 V2000
  -17.1504   24.1073  -22.3741 C   0  0  0  0  0  0  0  0  0  0  0  0
  -15.8379   23.5837  -22.0452 C   0  0  0  0  0  0  0  0  0  0  0  0
  -13.5469   23.1005  -22.5683 C   0  0  0  0  0  0  0  0  0  0  0  0
  -14.7978   23.6324  -22.9180 C   0  0  0  0  0  0  0  0  0  0  0  0
  -15.6245   22.9907  -20.7932 C   0  0  0  0  0  0  0  0  0  0  0  0
  -14.4041   22.4761  -20.4617 C   0  0  0  0  0  0  0  0  0  0  0  0
  -13.3670   22.5339  -21.3552 C   0  0  0  0  0  0  0  0  0  0  0  0
  -20.3450   31.0664  -21.2451 C   0  0  0  0  0  0  0  0  0  0  0  0
  -20.1735   32.1371  -20.3955 C   0  0  0  0  0  0  0  0  0  0  0  0
  -14.8946   24.1920  -24.1413 F   0  0  0  0  0  0  0  0  0  0  0  0
  -18.1839   23.3850  -22.0755 O   0  0  0  0  0  0  0  0  0  0  0  0
  -17.3882   25.3483  -22.9990 N   0  0  0  0  0  0  0  0  0  0  0  0
  -18.7419   25.6415  -23.3430 N   0  0  0  0  0  0  0  0  0  0  0  0
  -18.7667   27.1558  -24.1681 S   0  0  2  0  0  6  0  0  0  0  0  0
  -20.0757   27.3847  -24.8627 O   0  0  0  0  0  0  0  0  0  0  0  0
  -17.7088   27.0660  -25.2574 O   0  0  0  0  0  0  0  0  0  0  0  0
  -18.4369   28.4943  -23.0966 C   0  0  0  0  0  0  0  0  0  0  0  0
  -19.4665   29.2466  -22.5935 C   0  0  0  0  0  0  0  0  0  0  0  0
  -19.3081   30.3129  -21.7484 C   0  0  0  0  0  0  0  0  0  0  0  0
  -18.8866   32.4529  -20.0439 C   0  0  0  0  0  0  0  0  0  0  0  0
  -17.8214   31.7286  -20.5222 C   0  0  0  0  0  0  0  0  0  0  0  0
  -17.9994   30.6440  -21.3832 C   0  0  0  0  0  0  0  0  0  0  0  0
  -16.9394   29.9084  -21.8707 C   0  0  0  0  0  0  0  0  0  0  0  0
  -17.1394   28.8328  -22.7265 C   0  0  0  0  0  0  0  0  0  0  0  0
  1  2  1  0
  1 11  2  0
 12  1  1  0
  2  4  1  0
  2  5  2  0
  4  3  2  0
  3  7  1  0
  4 10  1  0
  5  6  1  0
  6  7  2  0
  8  9  2  0
 19  8  1  0
  9 20  1  0
 13 12  1  0
 14 13  1  1
 14 15  2  0
 14 16  2  0
 17 14  1  0
 18 17  1  0
 17 24  2  0
 18 19  2  0
 19 22  1  0
 20 21  2  0
 21 22  1  0
 22 23  2  0
 23 24  1  0
M  END
$$$$
