
     RDKit          3D

 24 26  0  0  0  0  0  0  0  0999 V2000
  -21.6783   16.7212  -36.0372 C   0  0  0  0  0  0  0  0  0  0  0  0
  -22.7354   15.8190  -36.5136 C   0  0  0  0  0  0  0  0  0  0  0  0
  -23.6846   14.0933  -37.8952 C   0  0  0  0  0  0  0  0  0  0  0  0
  -22.5835   14.8759  -37.4943 C   0  0  0  0  0  0  0  0  0  0  0  0
  -24.0090   15.9448  -35.9585 C   0  0  0  0  0  0  0  0  0  0  0  0
  -25.0880   15.1933  -36.3361 C   0  0  0  0  0  0  0  0  0  0  0  0
  -24.9154   14.2539  -37.3218 C   0  0  0  0  0  0  0  0  0  0  0  0
  -17.2917   13.4376  -32.9731 C   0  0  0  0  0  0  0  0  0  0  0  0
  -17.1370   12.2168  -32.2981 C   0  0  0  0  0  0  0  0  0  0  0  0
  -21.3984   14.6640  -38.0668 F   0  0  0  0  0  0  0  0  0  0  0  0
  -20.6898   16.9222  -36.7825 O   0  0  0  0  0  0  0  0  0  0  0  0
  -21.6843   17.3894  -34.7917 N   0  0  0  0  0  0  0  0  0  0  0  0
  -20.8729   18.3391  -34.2917 N   0  0  0  0  0  0  0  0  0  0  0  0
  -19.4213   18.0937  -33.6019 S   0  0  2  0  0  6  0  0  0  0  0  0
  -19.1126   19.1897  -32.5739 O   0  0  0  0  0  0  0  0  0  0  0  0
  -18.2462   18.1157  -34.5983 O   0  0  0  0  0  0  0  0  0  0  0  0
  -19.2665   16.5530  -32.7821 C   0  0  0  0  0  0  0  0  0  0  0  0
  -18.3811   15.5787  -33.1668 C   0  0  0  0  0  0  0  0  0  0  0  0
  -18.2125   14.3662  -32.5322 C   0  0  0  0  0  0  0  0  0  0  0  0
  -17.9111   11.9593  -31.1983 C   0  0  0  0  0  0  0  0  0  0  0  0
  -18.8385   12.9186  -30.7717 C   0  0  0  0  0  0  0  0  0  0  0  0
  -18.9964   14.1019  -31.4156 C   0  0  0  0  0  0  0  0  0  0  0  0
  -19.9057   15.0896  -31.0123 C   0  0  0  0  0  0  0  0  0  0  0  0
  -20.0400   16.2677  -31.6640 C   0  0  0  0  0  0  0  0  0  0  0  0
  1  2  1  0
  1 11  2  0
 12  1  1  0
  2  4  1  0
  2  5  2  0
  4  3  2  0
  3  7  1  0
  4 10  1  0
  5  6  1  0
  6  7  2  0
  8  9  2  0
 19  8  1  0
  9 20  1  0
 13 12  1  0
 14 13  1  6
 14 15  2  0
 14 16  2  0
 17 14  1  0
 18 17  1  0
 17 24  2  0
 18 19  2  0
 19 22  1  0
 20 21  2  0
 21 22  1  0
 22 23  2  0
 23 24  1  0
M  END
$$$$
