
     RDKit          3D

 46 48  0  0  0  0  0  0  0  0999 V2000
    0.9307  -12.9813   13.0833 C   0  0  0  0  0  0  0  0  0  0  0  0
    0.9733  -12.8062   14.4574 C   0  0  0  0  0  0  0  0  0  0  0  0
    0.1623  -11.8788   15.0691 C   0  0  0  0  0  0  0  0  0  0  0  0
   -0.6867  -11.1362   14.2760 C   0  0  0  0  0  0  0  0  0  0  0  0
   -0.7184  -11.3195   12.9192 C   0  0  0  0  0  0  0  0  0  0  0  0
    0.0985  -12.2572   12.2784 C   0  0  0  0  0  0  0  0  0  0  0  0
    0.0599  -12.4406   10.8176 C   0  0  0  0  0  0  0  0  0  0  0  0
    1.3105  -12.1656   10.1523 N   0  0  0  0  0  0  0  0  0  0  0  0
    2.1945  -13.1236    9.6637 C   0  0  0  0  0  0  0  0  0  0  0  0
    1.9233  -14.3507    9.8298 O   0  0  0  0  0  0  0  0  0  0  0  0
    3.4640  -12.7957    8.9443 C   0  0  1  0  0  0  0  0  0  0  0  0
    3.2799  -12.7192    7.5816 O   0  0  0  0  0  0  0  0  0  0  0  0
    4.2521  -11.7030    9.5624 C   0  0  2  0  0  0  0  0  0  0  0  0
    5.4599  -11.2411    8.8100 C   0  0  0  0  0  0  0  0  0  0  0  0
    6.1082   -9.9928    9.2679 C   0  0  0  0  0  0  0  0  0  0  0  0
    7.2991   -9.7559    8.3223 C   0  0  0  0  0  0  0  0  0  0  0  0
    8.0350   -8.4944    8.7182 C   0  0  0  0  0  0  0  0  0  0  0  0
    9.0321   -8.2411    7.6952 N   0  0  0  0  0  4  0  0  0  0  0  0
    4.6878  -11.9707   10.9155 N   0  0  0  0  0  0  0  0  0  0  0  0
    4.6172  -11.0589   12.0018 C   0  0  0  0  0  0  0  0  0  0  0  0
    3.7126  -10.1962   11.9984 O   0  0  0  0  0  0  0  0  0  0  0  0
    5.5599  -11.0755   13.1377 C   0  0  1  0  0  0  0  0  0  0  0  0
    5.1861  -12.1794   13.9725 N   0  0  0  0  0  0  0  0  0  0  0  0
    3.9283  -12.7381   14.1265 C   0  0  0  0  0  0  0  0  0  0  0  0
    3.2140  -12.9223   13.1215 O   0  0  0  0  0  0  0  0  0  0  0  0
    3.4740  -13.0867   15.3934 O   0  0  0  0  0  0  0  0  0  0  0  0
    2.4493  -12.3960   16.0580 C   0  0  0  0  0  0  0  0  0  0  0  0
    2.1823  -13.1282   17.3313 C   0  0  0  0  0  0  0  0  0  0  0  0
    2.5733  -14.4269   17.4343 C   0  0  0  0  0  0  0  0  0  0  0  0
    2.3416  -15.1216   18.6041 C   0  0  0  0  0  0  0  0  0  0  0  0
    1.7112  -14.5121   19.6854 C   0  0  0  0  0  0  0  0  0  0  0  0
    1.3271  -13.2071   19.5594 C   0  0  0  0  0  0  0  0  0  0  0  0
    1.5544  -12.5063   18.3957 C   0  0  0  0  0  0  0  0  0  0  0  0
    6.9797  -11.1260   12.6436 C   0  0  0  0  0  0  0  0  0  0  0  0
    7.9128  -10.7394   13.7492 C   0  0  0  0  0  0  0  0  0  0  0  0
    8.5164  -11.9546   14.3660 C   0  0  0  0  0  0  0  0  0  0  0  0
    7.9959  -13.0669   14.1570 O   0  0  0  0  0  0  0  0  0  0  0  0
    9.6740  -11.8142   15.1818 N   0  0  0  0  0  0  0  0  0  0  0  0
    9.5696  -11.4342   16.5102 N   0  0  0  0  0  0  0  0  0  0  0  0
    8.2959  -10.9831   17.0114 C   0  0  0  0  0  0  0  0  0  0  0  0
   10.6917  -11.4903   17.3646 C   0  0  0  0  0  0  0  0  0  0  0  0
   11.5327  -12.5911   17.3981 C   0  0  0  0  0  0  0  0  0  0  0  0
   12.5940  -12.5831   18.2425 C   0  0  0  0  0  0  0  0  0  0  0  0
   12.8357  -11.4839   19.0645 C   0  0  0  0  0  0  0  0  0  0  0  0
   12.0125  -10.4009   19.0348 C   0  0  0  0  0  0  0  0  0  0  0  0
   10.9359  -10.4073   18.1795 C   0  0  0  0  0  0  0  0  0  0  0  0
  1  2  2  0
  1  6  1  0
  2  3  1  0
  3  4  2  0
  4  5  1  0
  5  6  2  0
  6  7  1  0
  7  8  1  0
  8  9  1  0
  9 10  2  0
  9 11  1  0
 11 12  1  6
 11 13  1  0
 13 14  1  6
 13 19  1  0
 14 15  1  0
 15 16  1  0
 16 17  1  0
 17 18  1  0
 19 20  1  0
 20 21  2  0
 20 22  1  0
 22 23  1  0
 22 34  1  6
 23 24  1  0
 24 25  2  0
 24 26  1  0
 26 27  1  0
 27 28  1  0
 28 29  2  0
 28 33  1  0
 29 30  1  0
 30 31  2  0
 31 32  1  0
 32 33  2  0
 34 35  1  0
 35 36  1  0
 36 37  2  0
 36 38  1  0
 38 39  1  0
 39 40  1  0
 39 41  1  0
 41 42  2  0
 41 46  1  0
 42 43  1  0
 43 44  2  0
 44 45  1  0
 45 46  2  0
M  CHG  1  18   1
M  END
$$$$
