
     RDKit          3D

 46 48  0  0  0  0  0  0  0  0999 V2000
    4.3104  -15.6300    5.0305 C   0  0  0  0  0  0  0  0  0  0  0  0
    4.9400  -15.4069    3.8163 C   0  0  0  0  0  0  0  0  0  0  0  0
    6.2432  -15.8016    3.6219 C   0  0  0  0  0  0  0  0  0  0  0  0
    6.8959  -16.4212    4.6665 C   0  0  0  0  0  0  0  0  0  0  0  0
    6.2616  -16.6355    5.8612 C   0  0  0  0  0  0  0  0  0  0  0  0
    4.9370  -16.2413    6.0786 C   0  0  0  0  0  0  0  0  0  0  0  0
    4.2678  -16.4714    7.3703 C   0  0  0  0  0  0  0  0  0  0  0  0
    3.4237  -15.3839    7.8027 N   0  0  0  0  0  0  0  0  0  0  0  0
    3.6747  -14.5468    8.8864 C   0  0  0  0  0  0  0  0  0  0  0  0
    4.6569  -14.8031    9.6456 O   0  0  0  0  0  0  0  0  0  0  0  0
    2.8485  -13.3456    9.2199 C   0  0  1  0  0  0  0  0  0  0  0  0
    1.5310  -13.6737    9.4512 O   0  0  0  0  0  0  0  0  0  0  0  0
    3.4763  -12.4238   10.1962 C   0  0  2  0  0  0  0  0  0  0  0  0
    4.0310  -13.0433   11.4399 C   0  0  0  0  0  0  0  0  0  0  0  0
    4.6217  -12.1337   12.4458 C   0  0  0  0  0  0  0  0  0  0  0  0
    5.2089  -13.0345   13.5467 C   0  0  0  0  0  0  0  0  0  0  0  0
    5.9657  -12.1978   14.5551 C   0  0  0  0  0  0  0  0  0  0  0  0
    6.5090  -13.1081   15.5456 N   0  0  0  0  0  4  0  0  0  0  0  0
    2.6258  -11.3345   10.6233 N   0  0  0  0  0  0  0  0  0  0  0  0
    3.0397  -10.2172   11.3957 C   0  0  0  0  0  0  0  0  0  0  0  0
    4.2611   -9.9600   11.4656 O   0  0  0  0  0  0  0  0  0  0  0  0
    2.1006   -9.3414   12.1240 C   0  0  1  0  0  0  0  0  0  0  0  0
    1.3468  -10.1825   13.0068 N   0  0  0  0  0  0  0  0  0  0  0  0
    0.2338   -9.8423   13.7574 C   0  0  0  0  0  0  0  0  0  0  0  0
   -0.7161   -9.2502   13.2084 O   0  0  0  0  0  0  0  0  0  0  0  0
    0.1848  -10.1610   15.1098 O   0  0  0  0  0  0  0  0  0  0  0  0
   -0.0562  -11.4595   15.5838 C   0  0  0  0  0  0  0  0  0  0  0  0
    1.1726  -11.8951   16.3110 C   0  0  0  0  0  0  0  0  0  0  0  0
    1.1127  -12.0556   17.6604 C   0  0  0  0  0  0  0  0  0  0  0  0
    2.2351  -12.4629   18.3525 C   0  0  0  0  0  0  0  0  0  0  0  0
    3.4332  -12.7131   17.6892 C   0  0  0  0  0  0  0  0  0  0  0  0
    3.4701  -12.5452   16.3339 C   0  0  0  0  0  0  0  0  0  0  0  0
    2.3548  -12.1391   15.6352 C   0  0  0  0  0  0  0  0  0  0  0  0
    2.8434   -8.2293   12.8125 C   0  0  0  0  0  0  0  0  0  0  0  0
    3.1260   -7.1304   11.8351 C   0  0  0  0  0  0  0  0  0  0  0  0
    4.0307   -6.1150   12.4449 C   0  0  0  0  0  0  0  0  0  0  0  0
    4.7049   -6.4222   13.4462 O   0  0  0  0  0  0  0  0  0  0  0  0
    4.1012   -4.8158   11.8681 N   0  0  0  0  0  0  0  0  0  0  0  0
    4.6949   -4.6146   10.6324 N   0  0  0  0  0  0  0  0  0  0  0  0
    5.7623   -5.4895   10.2175 C   0  0  0  0  0  0  0  0  0  0  0  0
    4.2607   -3.5707    9.7874 C   0  0  0  0  0  0  0  0  0  0  0  0
    3.4364   -3.8045    8.6984 C   0  0  0  0  0  0  0  0  0  0  0  0
    3.0552   -2.7578    7.9247 C   0  0  0  0  0  0  0  0  0  0  0  0
    3.4859   -1.4657    8.2204 C   0  0  0  0  0  0  0  0  0  0  0  0
    4.2953   -1.2316    9.2888 C   0  0  0  0  0  0  0  0  0  0  0  0
    4.6829   -2.2916   10.0742 C   0  0  0  0  0  0  0  0  0  0  0  0
  1  2  2  0
  1  6  1  0
  2  3  1  0
  3  4  2  0
  4  5  1  0
  5  6  2  0
  6  7  1  0
  7  8  1  0
  8  9  1  0
  9 10  2  0
  9 11  1  0
 11 12  1  1
 11 13  1  0
 13 14  1  1
 13 19  1  0
 14 15  1  0
 15 16  1  0
 16 17  1  0
 17 18  1  0
 19 20  1  0
 20 21  2  0
 20 22  1  0
 22 23  1  0
 22 34  1  1
 23 24  1  0
 24 25  2  0
 24 26  1  0
 26 27  1  0
 27 28  1  0
 28 29  2  0
 28 33  1  0
 29 30  1  0
 30 31  2  0
 31 32  1  0
 32 33  2  0
 34 35  1  0
 35 36  1  0
 36 37  2  0
 36 38  1  0
 38 39  1  0
 39 40  1  0
 39 41  1  0
 41 42  2  0
 41 46  1  0
 42 43  1  0
 43 44  2  0
 44 45  1  0
 45 46  2  0
M  CHG  1  18   1
M  END
$$$$
