
     RDKit          3D

 46 48  0  0  0  0  0  0  0  0999 V2000
    6.7912   -7.1960    7.0175 C   0  0  0  0  0  0  0  0  0  0  0  0
    7.1982   -6.7949    5.7550 C   0  0  0  0  0  0  0  0  0  0  0  0
    6.6352   -7.3509    4.6299 C   0  0  0  0  0  0  0  0  0  0  0  0
    5.6611   -8.3118    4.7992 C   0  0  0  0  0  0  0  0  0  0  0  0
    5.2684   -8.6989    6.0529 C   0  0  0  0  0  0  0  0  0  0  0  0
    5.8288   -8.1458    7.2091 C   0  0  0  0  0  0  0  0  0  0  0  0
    5.4027   -8.5750    8.5521 C   0  0  0  0  0  0  0  0  0  0  0  0
    4.4287   -9.6397    8.5530 N   0  0  0  0  0  0  0  0  0  0  0  0
    4.6791  -10.9652    8.2089 C   0  0  0  0  0  0  0  0  0  0  0  0
    5.7862  -11.2601    7.6665 O   0  0  0  0  0  0  0  0  0  0  0  0
    3.7123  -12.0827    8.4401 C   0  0  1  0  0  0  0  0  0  0  0  0
    3.4632  -12.7959    7.2885 O   0  0  0  0  0  0  0  0  0  0  0  0
    3.9801  -12.8799    9.6607 C   0  0  2  0  0  0  0  0  0  0  0  0
    4.1468  -14.3548    9.4731 C   0  0  0  0  0  0  0  0  0  0  0  0
    4.6009  -15.1403   10.6414 C   0  0  0  0  0  0  0  0  0  0  0  0
    4.6749  -16.6040   10.1719 C   0  0  0  0  0  0  0  0  0  0  0  0
    5.1830  -17.4849   11.2924 C   0  0  0  0  0  0  0  0  0  0  0  0
    5.2935  -18.8310   10.7626 N   0  0  0  0  0  4  0  0  0  0  0  0
    3.0045  -12.7069   10.7145 N   0  0  0  0  0  0  0  0  0  0  0  0
    2.9004  -11.5757   11.5665 C   0  0  0  0  0  0  0  0  0  0  0  0
    3.7136  -10.6384   11.4152 O   0  0  0  0  0  0  0  0  0  0  0  0
    1.8801  -11.4487   12.6258 C   0  0  1  0  0  0  0  0  0  0  0  0
    2.5791  -11.1646   13.8448 N   0  0  0  0  0  0  0  0  0  0  0  0
    3.5645  -11.9235   14.4537 C   0  0  0  0  0  0  0  0  0  0  0  0
    3.8041  -13.0702   14.0271 O   0  0  0  0  0  0  0  0  0  0  0  0
    4.2745  -11.4042   15.5304 O   0  0  0  0  0  0  0  0  0  0  0  0
    5.4632  -11.9734   16.0117 C   0  0  0  0  0  0  0  0  0  0  0  0
    5.9319  -11.1178   17.1417 C   0  0  0  0  0  0  0  0  0  0  0  0
    7.1521  -10.5236   17.0509 C   0  0  0  0  0  0  0  0  0  0  0  0
    7.6033   -9.7240   18.0814 C   0  0  0  0  0  0  0  0  0  0  0  0
    6.8265   -9.5147   19.2175 C   0  0  0  0  0  0  0  0  0  0  0  0
    5.6045  -10.1216   19.2870 C   0  0  0  0  0  0  0  0  0  0  0  0
    5.1464  -10.9211   18.2634 C   0  0  0  0  0  0  0  0  0  0  0  0
    0.8525  -10.4178   12.2467 C   0  0  0  0  0  0  0  0  0  0  0  0
    0.0333  -10.0566   13.4471 C   0  0  0  0  0  0  0  0  0  0  0  0
   -1.1199  -10.9904   13.5871 C   0  0  0  0  0  0  0  0  0  0  0  0
   -1.6296  -11.4871   12.5648 O   0  0  0  0  0  0  0  0  0  0  0  0
   -1.6128  -11.2912   14.8879 N   0  0  0  0  0  0  0  0  0  0  0  0
   -2.9664  -11.2146   15.1738 N   0  0  0  0  0  0  0  0  0  0  0  0
   -3.9055  -11.0900   14.0879 C   0  0  0  0  0  0  0  0  0  0  0  0
   -3.4232  -11.2612   16.5085 C   0  0  0  0  0  0  0  0  0  0  0  0
   -4.2272  -10.2670   17.0429 C   0  0  0  0  0  0  0  0  0  0  0  0
   -4.6319  -10.3704   18.3332 C   0  0  0  0  0  0  0  0  0  0  0  0
   -4.2452  -11.4605   19.1107 C   0  0  0  0  0  0  0  0  0  0  0  0
   -3.4558  -12.4389   18.5901 C   0  0  0  0  0  0  0  0  0  0  0  0
   -3.0444  -12.3357   17.2821 C   0  0  0  0  0  0  0  0  0  0  0  0
  1  2  2  0
  1  6  1  0
  2  3  1  0
  3  4  2  0
  4  5  1  0
  5  6  2  0
  6  7  1  0
  7  8  1  0
  8  9  1  0
  9 10  2  0
  9 11  1  0
 11 12  1  6
 11 13  1  0
 13 14  1  6
 13 19  1  0
 14 15  1  0
 15 16  1  0
 16 17  1  0
 17 18  1  0
 19 20  1  0
 20 21  2  0
 20 22  1  0
 22 23  1  0
 22 34  1  6
 23 24  1  0
 24 25  2  0
 24 26  1  0
 26 27  1  0
 27 28  1  0
 28 29  2  0
 28 33  1  0
 29 30  1  0
 30 31  2  0
 31 32  1  0
 32 33  2  0
 34 35  1  0
 35 36  1  0
 36 37  2  0
 36 38  1  0
 38 39  1  0
 39 40  1  0
 39 41  1  0
 41 42  2  0
 41 46  1  0
 42 43  1  0
 43 44  2  0
 44 45  1  0
 45 46  2  0
M  CHG  1  18   1
M  END
$$$$
