
     RDKit          3D

 46 48  0  0  0  0  0  0  0  0999 V2000
    6.4556   -8.6490    8.5503 C   0  0  0  0  0  0  0  0  0  0  0  0
    7.1608   -8.0497    9.5818 C   0  0  0  0  0  0  0  0  0  0  0  0
    6.6259   -7.9821   10.8471 C   0  0  0  0  0  0  0  0  0  0  0  0
    5.3756   -8.5260   11.0526 C   0  0  0  0  0  0  0  0  0  0  0  0
    4.6897   -9.1153   10.0241 C   0  0  0  0  0  0  0  0  0  0  0  0
    5.2164   -9.1937    8.7305 C   0  0  0  0  0  0  0  0  0  0  0  0
    4.4662   -9.8243    7.6310 C   0  0  0  0  0  0  0  0  0  0  0  0
    4.2422  -11.2396    7.8012 N   0  0  0  0  0  0  0  0  0  0  0  0
    3.1537  -11.8137    8.4518 C   0  0  0  0  0  0  0  0  0  0  0  0
    2.2914  -11.0568    8.9908 O   0  0  0  0  0  0  0  0  0  0  0  0
    2.9305  -13.2887    8.5592 C   0  0  1  0  0  0  0  0  0  0  0  0
    3.2561  -13.9460    7.3935 O   0  0  0  0  0  0  0  0  0  0  0  0
    3.4335  -13.8931    9.8157 C   0  0  2  0  0  0  0  0  0  0  0  0
    3.7148  -15.3622    9.7856 C   0  0  0  0  0  0  0  0  0  0  0  0
    2.8293  -16.2391   10.5825 C   0  0  0  0  0  0  0  0  0  0  0  0
    3.5499  -17.5947   10.6882 C   0  0  0  0  0  0  0  0  0  0  0  0
    2.9592  -18.4115   11.8167 C   0  0  0  0  0  0  0  0  0  0  0  0
    3.6066  -19.7097   11.7905 N   0  0  0  0  0  4  0  0  0  0  0  0
    2.5945  -13.6585   10.9705 N   0  0  0  0  0  0  0  0  0  0  0  0
    2.0753  -12.3994   11.3723 C   0  0  0  0  0  0  0  0  0  0  0  0
    2.3529  -11.3930   10.6848 O   0  0  0  0  0  0  0  0  0  0  0  0
    1.2234  -12.2158   12.5639 C   0  0  1  0  0  0  0  0  0  0  0  0
    1.5348  -13.2850   13.4668 N   0  0  0  0  0  0  0  0  0  0  0  0
    1.1105  -13.4399   14.7759 C   0  0  0  0  0  0  0  0  0  0  0  0
   -0.1039  -13.3419   15.0405 O   0  0  0  0  0  0  0  0  0  0  0  0
    2.0365  -13.7015   15.7793 O   0  0  0  0  0  0  0  0  0  0  0  0
    1.6713  -14.0496   17.0886 C   0  0  0  0  0  0  0  0  0  0  0  0
    2.9332  -14.3333   17.8341 C   0  0  0  0  0  0  0  0  0  0  0  0
    4.1164  -14.2726   17.1659 C   0  0  0  0  0  0  0  0  0  0  0  0
    5.2958  -14.5258   17.8365 C   0  0  0  0  0  0  0  0  0  0  0  0
    5.2943  -14.8440   19.1917 C   0  0  0  0  0  0  0  0  0  0  0  0
    4.0944  -14.8994   19.8424 C   0  0  0  0  0  0  0  0  0  0  0  0
    2.9126  -14.6481   19.1811 C   0  0  0  0  0  0  0  0  0  0  0  0
    1.4162  -10.8408   13.1426 C   0  0  0  0  0  0  0  0  0  0  0  0
    2.7577  -10.3086   12.7429 C   0  0  0  0  0  0  0  0  0  0  0  0
    2.8921   -8.8822   13.1533 C   0  0  0  0  0  0  0  0  0  0  0  0
    1.9122   -8.2962   13.6514 O   0  0  0  0  0  0  0  0  0  0  0  0
    4.1389   -8.2223   12.9644 N   0  0  0  0  0  0  0  0  0  0  0  0
    4.3169   -6.9060   13.3588 N   0  0  0  0  0  0  0  0  0  0  0  0
    3.2242   -6.2103   13.9902 C   0  0  0  0  0  0  0  0  0  0  0  0
    5.5510   -6.2535   13.1502 C   0  0  0  0  0  0  0  0  0  0  0  0
    5.9801   -5.2193   13.9666 C   0  0  0  0  0  0  0  0  0  0  0  0
    7.1763   -4.6328   13.7122 C   0  0  0  0  0  0  0  0  0  0  0  0
    7.9627   -5.0637   12.6453 C   0  0  0  0  0  0  0  0  0  0  0  0
    7.5452   -6.0788   11.8411 C   0  0  0  0  0  0  0  0  0  0  0  0
    6.3327   -6.6745   12.0975 C   0  0  0  0  0  0  0  0  0  0  0  0
  1  2  2  0
  1  6  1  0
  2  3  1  0
  3  4  2  0
  4  5  1  0
  5  6  2  0
  6  7  1  0
  7  8  1  0
  8  9  1  0
  9 10  2  0
  9 11  1  0
 11 12  1  6
 11 13  1  0
 13 14  1  6
 13 19  1  0
 14 15  1  0
 15 16  1  0
 16 17  1  0
 17 18  1  0
 19 20  1  0
 20 21  2  0
 20 22  1  0
 22 23  1  0
 22 34  1  1
 23 24  1  0
 24 25  2  0
 24 26  1  0
 26 27  1  0
 27 28  1  0
 28 29  2  0
 28 33  1  0
 29 30  1  0
 30 31  2  0
 31 32  1  0
 32 33  2  0
 34 35  1  0
 35 36  1  0
 36 37  2  0
 36 38  1  0
 38 39  1  0
 39 40  1  0
 39 41  1  0
 41 42  2  0
 41 46  1  0
 42 43  1  0
 43 44  2  0
 44 45  1  0
 45 46  2  0
M  CHG  1  18   1
M  END
$$$$
