
     RDKit          3D

 46 48  0  0  0  0  0  0  0  0999 V2000
    1.5306  -15.7865    8.0614 C   0  0  0  0  0  0  0  0  0  0  0  0
    0.2616  -15.5955    7.5385 C   0  0  0  0  0  0  0  0  0  0  0  0
   -0.7643  -15.1500    8.3390 C   0  0  0  0  0  0  0  0  0  0  0  0
   -0.4898  -14.9022    9.6673 C   0  0  0  0  0  0  0  0  0  0  0  0
    0.7691  -15.0953   10.1710 C   0  0  0  0  0  0  0  0  0  0  0  0
    1.8254  -15.5479    9.3733 C   0  0  0  0  0  0  0  0  0  0  0  0
    3.1735  -15.7580    9.9281 C   0  0  0  0  0  0  0  0  0  0  0  0
    4.1053  -14.6943    9.6409 N   0  0  0  0  0  0  0  0  0  0  0  0
    4.2685  -13.5362   10.3960 C   0  0  0  0  0  0  0  0  0  0  0  0
    3.5188  -13.3475   11.4006 O   0  0  0  0  0  0  0  0  0  0  0  0
    5.2863  -12.4823   10.0954 C   0  0  1  0  0  0  0  0  0  0  0  0
    5.9315  -12.7140    8.9009 O   0  0  0  0  0  0  0  0  0  0  0  0
    4.8181  -11.0957   10.3302 C   0  0  2  0  0  0  0  0  0  0  0  0
    4.5322  -10.2714    9.1149 C   0  0  0  0  0  0  0  0  0  0  0  0
    3.8870   -8.9567    9.3231 C   0  0  0  0  0  0  0  0  0  0  0  0
    3.8321   -8.2818    7.9411 C   0  0  0  0  0  0  0  0  0  0  0  0
    4.2413   -6.8295    8.0546 C   0  0  0  0  0  0  0  0  0  0  0  0
    3.1563   -6.1291    8.7158 N   0  0  0  0  0  4  0  0  0  0  0  0
    5.6905  -10.3033   11.1689 N   0  0  0  0  0  0  0  0  0  0  0  0
    6.1429  -10.6654   12.4652 C   0  0  0  0  0  0  0  0  0  0  0  0
    6.0627  -11.8638   12.8117 O   0  0  0  0  0  0  0  0  0  0  0  0
    6.7035   -9.6977   13.4288 C   0  0  1  0  0  0  0  0  0  0  0  0
    7.6911  -10.3988   14.1959 N   0  0  0  0  0  0  0  0  0  0  0  0
    7.5311  -11.0089   15.4288 C   0  0  0  0  0  0  0  0  0  0  0  0
    6.5868  -10.6613   16.1648 O   0  0  0  0  0  0  0  0  0  0  0  0
    8.4200  -11.9979   15.8343 O   0  0  0  0  0  0  0  0  0  0  0  0
    9.0513  -11.9953   17.0874 C   0  0  0  0  0  0  0  0  0  0  0  0
    8.0239  -12.3903   18.0958 C   0  0  0  0  0  0  0  0  0  0  0  0
    7.6971  -13.7051   18.2174 C   0  0  0  0  0  0  0  0  0  0  0  0
    6.7539  -14.0937   19.1469 C   0  0  0  0  0  0  0  0  0  0  0  0
    6.1283  -13.1577   19.9658 C   0  0  0  0  0  0  0  0  0  0  0  0
    6.4721  -11.8429   19.8262 C   0  0  0  0  0  0  0  0  0  0  0  0
    7.4124  -11.4463   18.9012 C   0  0  0  0  0  0  0  0  0  0  0  0
    7.2245   -8.4821   12.7121 C   0  0  0  0  0  0  0  0  0  0  0  0
    8.5998   -8.7566   12.1871 C   0  0  0  0  0  0  0  0  0  0  0  0
    9.6241   -8.1083   13.0543 C   0  0  0  0  0  0  0  0  0  0  0  0
    9.3590   -7.8897   14.2517 O   0  0  0  0  0  0  0  0  0  0  0  0
   10.8820   -7.7523   12.4917 N   0  0  0  0  0  0  0  0  0  0  0  0
   11.9491   -7.3930   13.2992 N   0  0  0  0  0  0  0  0  0  0  0  0
   13.1509   -6.8857   12.6867 C   0  0  0  0  0  0  0  0  0  0  0  0
   11.8628   -7.5171   14.7025 C   0  0  0  0  0  0  0  0  0  0  0  0
   12.2374   -8.6781   15.3597 C   0  0  0  0  0  0  0  0  0  0  0  0
   12.1294   -8.7339   16.7105 C   0  0  0  0  0  0  0  0  0  0  0  0
   11.6488   -7.6397   17.4276 C   0  0  0  0  0  0  0  0  0  0  0  0
   11.2799   -6.4978   16.7863 C   0  0  0  0  0  0  0  0  0  0  0  0
   11.3886   -6.4394   15.4168 C   0  0  0  0  0  0  0  0  0  0  0  0
  1  2  2  0
  1  6  1  0
  2  3  1  0
  3  4  2  0
  4  5  1  0
  5  6  2  0
  6  7  1  0
  7  8  1  0
  8  9  1  0
  9 10  2  0
  9 11  1  0
 11 12  1  6
 11 13  1  0
 13 14  1  6
 13 19  1  0
 14 15  1  0
 15 16  1  0
 16 17  1  0
 17 18  1  0
 19 20  1  0
 20 21  2  0
 20 22  1  0
 22 23  1  0
 22 34  1  6
 23 24  1  0
 24 25  2  0
 24 26  1  0
 26 27  1  0
 27 28  1  0
 28 29  2  0
 28 33  1  0
 29 30  1  0
 30 31  2  0
 31 32  1  0
 32 33  2  0
 34 35  1  0
 35 36  1  0
 36 37  2  0
 36 38  1  0
 38 39  1  0
 39 40  1  0
 39 41  1  0
 41 42  2  0
 41 46  1  0
 42 43  1  0
 43 44  2  0
 44 45  1  0
 45 46  2  0
M  CHG  1  18   1
M  END
$$$$
