
     RDKit          3D

 46 48  0  0  0  0  0  0  0  0999 V2000
    1.9609   -7.6575    7.4930 C   0  0  0  0  0  0  0  0  0  0  0  0
    1.6157   -6.3822    7.0747 C   0  0  0  0  0  0  0  0  0  0  0  0
    0.6471   -5.6669    7.7396 C   0  0  0  0  0  0  0  0  0  0  0  0
    0.0370   -6.2563    8.8266 C   0  0  0  0  0  0  0  0  0  0  0  0
    0.3879   -7.5175    9.2292 C   0  0  0  0  0  0  0  0  0  0  0  0
    1.3701   -8.2610    8.5661 C   0  0  0  0  0  0  0  0  0  0  0  0
    1.7342   -9.6190    9.0047 C   0  0  0  0  0  0  0  0  0  0  0  0
    2.7354  -10.2582    8.1853 N   0  0  0  0  0  0  0  0  0  0  0  0
    3.0254  -11.6198    8.1776 C   0  0  0  0  0  0  0  0  0  0  0  0
    2.0766  -12.4488    8.0387 O   0  0  0  0  0  0  0  0  0  0  0  0
    4.4049  -12.1784    8.3250 C   0  0  1  0  0  0  0  0  0  0  0  0
    5.0968  -12.1653    7.1342 O   0  0  0  0  0  0  0  0  0  0  0  0
    5.1388  -11.6882    9.5159 C   0  0  2  0  0  0  0  0  0  0  0  0
    6.6326  -11.7051    9.4348 C   0  0  0  0  0  0  0  0  0  0  0  0
    7.3149  -12.9788    9.7515 C   0  0  0  0  0  0  0  0  0  0  0  0
    8.8045  -12.7584    9.4336 C   0  0  0  0  0  0  0  0  0  0  0  0
    9.4258  -11.8392   10.4625 C   0  0  0  0  0  0  0  0  0  0  0  0
   10.4324  -12.6072   11.1709 N   0  0  0  0  0  4  0  0  0  0  0  0
    4.7864  -12.3525   10.7515 N   0  0  0  0  0  0  0  0  0  0  0  0
    4.3374  -11.7104   11.9357 C   0  0  0  0  0  0  0  0  0  0  0  0
    4.0086  -10.5059   11.8731 O   0  0  0  0  0  0  0  0  0  0  0  0
    4.2395  -12.3922   13.2414 C   0  0  1  0  0  0  0  0  0  0  0  0
    4.7000  -11.4633   14.2314 N   0  0  0  0  0  0  0  0  0  0  0  0
    5.8969  -11.4901   14.9276 C   0  0  0  0  0  0  0  0  0  0  0  0
    6.5541  -12.5485   14.9728 O   0  0  0  0  0  0  0  0  0  0  0  0
    6.3534  -10.3434   15.5675 O   0  0  0  0  0  0  0  0  0  0  0  0
    5.8829   -9.9258   16.8218 C   0  0  0  0  0  0  0  0  0  0  0  0
    7.0800   -9.5992   17.6517 C   0  0  0  0  0  0  0  0  0  0  0  0
    7.2483  -10.2405   18.8393 C   0  0  0  0  0  0  0  0  0  0  0  0
    8.3506   -9.9582   19.6204 C   0  0  0  0  0  0  0  0  0  0  0  0
    9.2973   -9.0234   19.2108 C   0  0  0  0  0  0  0  0  0  0  0  0
    9.1077   -8.3914   18.0146 C   0  0  0  0  0  0  0  0  0  0  0  0
    8.0107   -8.6671   17.2287 C   0  0  0  0  0  0  0  0  0  0  0  0
    2.8408  -12.8967   13.4689 C   0  0  0  0  0  0  0  0  0  0  0  0
    2.8822  -14.1408   14.3014 C   0  0  0  0  0  0  0  0  0  0  0  0
    1.4996  -14.6140   14.5946 C   0  0  0  0  0  0  0  0  0  0  0  0
    0.6260  -13.7847   14.9119 O   0  0  0  0  0  0  0  0  0  0  0  0
    1.2109  -16.0048   14.5063 N   0  0  0  0  0  0  0  0  0  0  0  0
   -0.0506  -16.4506   14.1461 N   0  0  0  0  0  0  0  0  0  0  0  0
   -1.1410  -15.5092   14.1062 C   0  0  0  0  0  0  0  0  0  0  0  0
   -0.2678  -17.8062   13.8186 C   0  0  0  0  0  0  0  0  0  0  0  0
    0.6962  -18.5690   13.1790 C   0  0  0  0  0  0  0  0  0  0  0  0
    0.4249  -19.8663   12.8912 C   0  0  0  0  0  0  0  0  0  0  0  0
   -0.8054  -20.4245   13.2336 C   0  0  0  0  0  0  0  0  0  0  0  0
   -1.7548  -19.6792   13.8617 C   0  0  0  0  0  0  0  0  0  0  0  0
   -1.4815  -18.3637   14.1542 C   0  0  0  0  0  0  0  0  0  0  0  0
  1  2  2  0
  1  6  1  0
  2  3  1  0
  3  4  2  0
  4  5  1  0
  5  6  2  0
  6  7  1  0
  7  8  1  0
  8  9  1  0
  9 10  2  0
  9 11  1  0
 11 12  1  6
 11 13  1  0
 13 14  1  6
 13 19  1  0
 14 15  1  0
 15 16  1  0
 16 17  1  0
 17 18  1  0
 19 20  1  0
 20 21  2  0
 20 22  1  0
 22 23  1  0
 22 34  1  1
 23 24  1  0
 24 25  2  0
 24 26  1  0
 26 27  1  0
 27 28  1  0
 28 29  2  0
 28 33  1  0
 29 30  1  0
 30 31  2  0
 31 32  1  0
 32 33  2  0
 34 35  1  0
 35 36  1  0
 36 37  2  0
 36 38  1  0
 38 39  1  0
 39 40  1  0
 39 41  1  0
 41 42  2  0
 41 46  1  0
 42 43  1  0
 43 44  2  0
 44 45  1  0
 45 46  2  0
M  CHG  1  18   1
M  END
$$$$
