
     RDKit          3D

 46 48  0  0  0  0  0  0  0  0999 V2000
    5.8667   -8.4748    7.2838 C   0  0  0  0  0  0  0  0  0  0  0  0
    6.4107   -7.6913    6.2785 C   0  0  0  0  0  0  0  0  0  0  0  0
    5.7774   -6.5410    5.8689 C   0  0  0  0  0  0  0  0  0  0  0  0
    4.5938   -6.1971    6.4869 C   0  0  0  0  0  0  0  0  0  0  0  0
    4.0673   -6.9807    7.4791 C   0  0  0  0  0  0  0  0  0  0  0  0
    4.6960   -8.1540    7.9095 C   0  0  0  0  0  0  0  0  0  0  0  0
    4.1165   -8.9919    8.9731 C   0  0  0  0  0  0  0  0  0  0  0  0
    3.9910  -10.3871    8.6267 N   0  0  0  0  0  0  0  0  0  0  0  0
    3.1158  -11.2923    9.2204 C   0  0  0  0  0  0  0  0  0  0  0  0
    2.3031  -10.8745   10.0989 O   0  0  0  0  0  0  0  0  0  0  0  0
    3.0704  -12.7492    8.8854 C   0  0  1  0  0  0  0  0  0  0  0  0
    2.7862  -12.9639    7.5549 O   0  0  0  0  0  0  0  0  0  0  0  0
    4.1858  -13.5423    9.4545 C   0  0  2  0  0  0  0  0  0  0  0  0
    3.9984  -15.0261    9.4959 C   0  0  0  0  0  0  0  0  0  0  0  0
    5.1272  -15.8387    9.9995 C   0  0  0  0  0  0  0  0  0  0  0  0
    4.8902  -17.2690    9.4835 C   0  0  0  0  0  0  0  0  0  0  0  0
    6.0149  -18.1768    9.9312 C   0  0  0  0  0  0  0  0  0  0  0  0
    5.7358  -19.4982    9.4011 N   0  0  0  0  0  4  0  0  0  0  0  0
    4.5877  -13.1411   10.7848 N   0  0  0  0  0  0  0  0  0  0  0  0
    3.7079  -12.8064   11.8479 C   0  0  0  0  0  0  0  0  0  0  0  0
    2.7365  -12.0580   11.6049 O   0  0  0  0  0  0  0  0  0  0  0  0
    3.8814  -13.2962   13.2297 C   0  0  1  0  0  0  0  0  0  0  0  0
    3.0194  -14.4318   13.3799 N   0  0  0  0  0  0  0  0  0  0  0  0
    1.9904  -14.6004   14.2913 C   0  0  0  0  0  0  0  0  0  0  0  0
    1.6061  -13.6255   14.9667 O   0  0  0  0  0  0  0  0  0  0  0  0
    1.3977  -15.8485   14.4458 O   0  0  0  0  0  0  0  0  0  0  0  0
    1.4988  -16.6055   15.6229 C   0  0  0  0  0  0  0  0  0  0  0  0
    0.2396  -17.3983   15.7430 C   0  0  0  0  0  0  0  0  0  0  0  0
   -0.6813  -17.3197   14.7450 C   0  0  0  0  0  0  0  0  0  0  0  0
   -1.8503  -18.0482   14.8324 C   0  0  0  0  0  0  0  0  0  0  0  0
   -2.1035  -18.8658   15.9303 C   0  0  0  0  0  0  0  0  0  0  0  0
   -1.1645  -18.9291   16.9206 C   0  0  0  0  0  0  0  0  0  0  0  0
    0.0048  -18.2056   16.8416 C   0  0  0  0  0  0  0  0  0  0  0  0
    5.3320  -13.5786   13.5104 C   0  0  0  0  0  0  0  0  0  0  0  0
    5.6726  -13.1357   14.8998 C   0  0  0  0  0  0  0  0  0  0  0  0
    5.9966  -11.6810   14.9148 C   0  0  0  0  0  0  0  0  0  0  0  0
    5.0717  -10.8514   15.0048 O   0  0  0  0  0  0  0  0  0  0  0  0
    7.3573  -11.2741   14.8241 N   0  0  0  0  0  0  0  0  0  0  0  0
    7.9099  -10.4160   15.7612 N   0  0  0  0  0  0  0  0  0  0  0  0
    9.3083  -10.0810   15.6652 C   0  0  0  0  0  0  0  0  0  0  0  0
    7.1168   -9.8727   16.7946 C   0  0  0  0  0  0  0  0  0  0  0  0
    5.7706  -10.1759   16.9215 C   0  0  0  0  0  0  0  0  0  0  0  0
    5.0635   -9.6199   17.9365 C   0  0  0  0  0  0  0  0  0  0  0  0
    5.6815   -8.7562   18.8391 C   0  0  0  0  0  0  0  0  0  0  0  0
    7.0030   -8.4558   18.7182 C   0  0  0  0  0  0  0  0  0  0  0  0
    7.7215   -9.0185   17.6897 C   0  0  0  0  0  0  0  0  0  0  0  0
  1  2  2  0
  1  6  1  0
  2  3  1  0
  3  4  2  0
  4  5  1  0
  5  6  2  0
  6  7  1  0
  7  8  1  0
  8  9  1  0
  9 10  2  0
  9 11  1  0
 11 12  1  6
 11 13  1  0
 13 14  1  1
 13 19  1  0
 14 15  1  0
 15 16  1  0
 16 17  1  0
 17 18  1  0
 19 20  1  0
 20 21  2  0
 20 22  1  0
 22 23  1  0
 22 34  1  6
 23 24  1  0
 24 25  2  0
 24 26  1  0
 26 27  1  0
 27 28  1  0
 28 29  2  0
 28 33  1  0
 29 30  1  0
 30 31  2  0
 31 32  1  0
 32 33  2  0
 34 35  1  0
 35 36  1  0
 36 37  2  0
 36 38  1  0
 38 39  1  0
 39 40  1  0
 39 41  1  0
 41 42  2  0
 41 46  1  0
 42 43  1  0
 43 44  2  0
 44 45  1  0
 45 46  2  0
M  CHG  1  18   1
M  END
$$$$
