
     RDKit          3D

 46 48  0  0  0  0  0  0  0  0999 V2000
   -0.9142  -15.9985    9.4196 C   0  0  0  0  0  0  0  0  0  0  0  0
   -1.5186  -16.7923    8.4578 C   0  0  0  0  0  0  0  0  0  0  0  0
   -0.7879  -17.2948    7.4064 C   0  0  0  0  0  0  0  0  0  0  0  0
    0.5541  -16.9850    7.3426 C   0  0  0  0  0  0  0  0  0  0  0  0
    1.1387  -16.1993    8.3000 C   0  0  0  0  0  0  0  0  0  0  0  0
    0.4127  -15.6786    9.3764 C   0  0  0  0  0  0  0  0  0  0  0  0
    1.0514  -14.8293   10.3964 C   0  0  0  0  0  0  0  0  0  0  0  0
    2.4242  -14.4896   10.1101 N   0  0  0  0  0  0  0  0  0  0  0  0
    2.8450  -13.4552    9.2788 C   0  0  0  0  0  0  0  0  0  0  0  0
    1.9814  -12.8251    8.5976 O   0  0  0  0  0  0  0  0  0  0  0  0
    4.2719  -13.0314    9.1335 C   0  0  1  0  0  0  0  0  0  0  0  0
    4.7517  -13.2616    7.8631 O   0  0  0  0  0  0  0  0  0  0  0  0
    4.5784  -11.7052    9.7203 C   0  0  2  0  0  0  0  0  0  0  0  0
    4.6418  -10.5516    8.7698 C   0  0  0  0  0  0  0  0  0  0  0  0
    4.9375   -9.2188    9.3391 C   0  0  0  0  0  0  0  0  0  0  0  0
    4.8988   -8.2303    8.1603 C   0  0  0  0  0  0  0  0  0  0  0  0
    5.2753   -6.8428    8.6319 C   0  0  0  0  0  0  0  0  0  0  0  0
    4.0413   -6.1469    8.9449 N   0  0  0  0  0  4  0  0  0  0  0  0
    5.7958  -11.6628   10.5004 N   0  0  0  0  0  0  0  0  0  0  0  0
    5.9466  -11.0298   11.7625 C   0  0  0  0  0  0  0  0  0  0  0  0
    4.9567  -10.4527   12.2623 O   0  0  0  0  0  0  0  0  0  0  0  0
    7.2153  -11.0162   12.5171 C   0  0  1  0  0  0  0  0  0  0  0  0
    7.3046   -9.7369   13.1579 N   0  0  0  0  0  0  0  0  0  0  0  0
    7.2635   -8.4865   12.5641 C   0  0  0  0  0  0  0  0  0  0  0  0
    6.6368   -8.3369   11.4968 O   0  0  0  0  0  0  0  0  0  0  0  0
    7.9184   -7.4139   13.1587 O   0  0  0  0  0  0  0  0  0  0  0  0
    8.3934   -6.3088   12.4363 C   0  0  0  0  0  0  0  0  0  0  0  0
    8.9578   -5.3469   13.4286 C   0  0  0  0  0  0  0  0  0  0  0  0
    9.0915   -5.7441   14.7227 C   0  0  0  0  0  0  0  0  0  0  0  0
    9.6160   -4.8731   15.6560 C   0  0  0  0  0  0  0  0  0  0  0  0
   10.0121   -3.5888   15.2932 C   0  0  0  0  0  0  0  0  0  0  0  0
    9.8684   -3.2115   13.9880 C   0  0  0  0  0  0  0  0  0  0  0  0
    9.3460   -4.0742   13.0500 C   0  0  0  0  0  0  0  0  0  0  0  0
    7.2804  -12.1866   13.4596 C   0  0  0  0  0  0  0  0  0  0  0  0
    8.6056  -12.1997   14.1572 C   0  0  0  0  0  0  0  0  0  0  0  0
    8.4438  -11.7994   15.5837 C   0  0  0  0  0  0  0  0  0  0  0  0
    7.2983  -11.6322   16.0438 O   0  0  0  0  0  0  0  0  0  0  0  0
    9.6043  -11.6159   16.3868 N   0  0  0  0  0  0  0  0  0  0  0  0
    9.4998  -11.2574   17.7211 N   0  0  0  0  0  0  0  0  0  0  0  0
    8.2390  -10.7668   18.2177 C   0  0  0  0  0  0  0  0  0  0  0  0
   10.6093  -11.3733   18.5859 C   0  0  0  0  0  0  0  0  0  0  0  0
   11.3052  -10.2633   19.0375 C   0  0  0  0  0  0  0  0  0  0  0  0
   12.3635  -10.4424   19.8665 C   0  0  0  0  0  0  0  0  0  0  0  0
   12.7458  -11.7239   20.2588 C   0  0  0  0  0  0  0  0  0  0  0  0
   12.0653  -12.8166   19.8178 C   0  0  0  0  0  0  0  0  0  0  0  0
   10.9922  -12.6369   18.9772 C   0  0  0  0  0  0  0  0  0  0  0  0
  1  2  2  0
  1  6  1  0
  2  3  1  0
  3  4  2  0
  4  5  1  0
  5  6  2  0
  6  7  1  0
  7  8  1  0
  8  9  1  0
  9 10  2  0
  9 11  1  0
 11 12  1  6
 11 13  1  0
 13 14  1  6
 13 19  1  0
 14 15  1  0
 15 16  1  0
 16 17  1  0
 17 18  1  0
 19 20  1  0
 20 21  2  0
 20 22  1  0
 22 23  1  0
 22 34  1  1
 23 24  1  0
 24 25  2  0
 24 26  1  0
 26 27  1  0
 27 28  1  0
 28 29  2  0
 28 33  1  0
 29 30  1  0
 30 31  2  0
 31 32  1  0
 32 33  2  0
 34 35  1  0
 35 36  1  0
 36 37  2  0
 36 38  1  0
 38 39  1  0
 39 40  1  0
 39 41  1  0
 41 42  2  0
 41 46  1  0
 42 43  1  0
 43 44  2  0
 44 45  1  0
 45 46  2  0
M  CHG  1  18   1
M  END
$$$$
