
     RDKit          3D

 46 48  0  0  0  0  0  0  0  0999 V2000
   -1.3802  -12.9985   10.7522 C   0  0  0  0  0  0  0  0  0  0  0  0
   -2.5807  -13.6814   10.8658 C   0  0  0  0  0  0  0  0  0  0  0  0
   -3.5250  -13.2867   11.7847 C   0  0  0  0  0  0  0  0  0  0  0  0
   -3.2392  -12.1985   12.5817 C   0  0  0  0  0  0  0  0  0  0  0  0
   -2.0487  -11.5327   12.4589 C   0  0  0  0  0  0  0  0  0  0  0  0
   -1.0757  -11.9187   11.5308 C   0  0  0  0  0  0  0  0  0  0  0  0
    0.2037  -11.1987   11.4126 C   0  0  0  0  0  0  0  0  0  0  0  0
    0.7010  -11.0911   10.0623 N   0  0  0  0  0  0  0  0  0  0  0  0
    1.4092  -12.0766    9.3804 C   0  0  0  0  0  0  0  0  0  0  0  0
    0.7669  -12.9754    8.7587 O   0  0  0  0  0  0  0  0  0  0  0  0
    2.9024  -12.1468    9.3321 C   0  0  1  0  0  0  0  0  0  0  0  0
    3.3640  -12.4547    8.0715 O   0  0  0  0  0  0  0  0  0  0  0  0
    3.5895  -11.0332   10.0286 C   0  0  2  0  0  0  0  0  0  0  0  0
    4.6546  -10.3184    9.2586 C   0  0  0  0  0  0  0  0  0  0  0  0
    6.0418  -10.8119    9.4010 C   0  0  0  0  0  0  0  0  0  0  0  0
    6.9057   -9.9366    8.4759 C   0  0  0  0  0  0  0  0  0  0  0  0
    7.4707   -8.7639    9.2473 C   0  0  0  0  0  0  0  0  0  0  0  0
    8.8755   -9.0413    9.4806 N   0  0  0  0  0  4  0  0  0  0  0  0
    4.1739  -11.3934   11.3018 N   0  0  0  0  0  0  0  0  0  0  0  0
    4.7341  -10.4865   12.2398 C   0  0  0  0  0  0  0  0  0  0  0  0
    5.4660   -9.5661   11.8156 O   0  0  0  0  0  0  0  0  0  0  0  0
    4.4979  -10.5745   13.6944 C   0  0  1  0  0  0  0  0  0  0  0  0
    3.5148  -11.5984   13.8952 N   0  0  0  0  0  0  0  0  0  0  0  0
    3.5028  -12.5831   14.8689 C   0  0  0  0  0  0  0  0  0  0  0  0
    4.2757  -12.4893   15.8426 O   0  0  0  0  0  0  0  0  0  0  0  0
    2.6345  -13.6627   14.7536 O   0  0  0  0  0  0  0  0  0  0  0  0
    1.4889  -13.6428   13.9437 C   0  0  0  0  0  0  0  0  0  0  0  0
    0.3937  -14.2978   14.7185 C   0  0  0  0  0  0  0  0  0  0  0  0
   -0.8657  -14.2924   14.2047 C   0  0  0  0  0  0  0  0  0  0  0  0
   -1.8925  -14.8967   14.9014 C   0  0  0  0  0  0  0  0  0  0  0  0
   -1.6593  -15.5144   16.1270 C   0  0  0  0  0  0  0  0  0  0  0  0
   -0.3867  -15.5074   16.6237 C   0  0  0  0  0  0  0  0  0  0  0  0
    0.6440  -14.9068   15.9352 C   0  0  0  0  0  0  0  0  0  0  0  0
    5.7920  -10.8069   14.4252 C   0  0  0  0  0  0  0  0  0  0  0  0
    6.6379   -9.5730   14.3584 C   0  0  0  0  0  0  0  0  0  0  0  0
    7.8757   -9.8357   13.5708 C   0  0  0  0  0  0  0  0  0  0  0  0
    8.1250   -9.1312   12.5741 O   0  0  0  0  0  0  0  0  0  0  0  0
    8.7436  -10.8881   13.9764 N   0  0  0  0  0  0  0  0  0  0  0  0
   10.0140  -10.6195   14.4600 N   0  0  0  0  0  0  0  0  0  0  0  0
   10.1791   -9.6027   15.4678 C   0  0  0  0  0  0  0  0  0  0  0  0
   11.1327  -11.3322   13.9774 C   0  0  0  0  0  0  0  0  0  0  0  0
   11.0389  -12.6524   13.5669 C   0  0  0  0  0  0  0  0  0  0  0  0
   12.1518  -13.2815   13.1140 C   0  0  0  0  0  0  0  0  0  0  0  0
   13.3721  -12.6103   13.0619 C   0  0  0  0  0  0  0  0  0  0  0  0
   13.4687  -11.3140   13.4640 C   0  0  0  0  0  0  0  0  0  0  0  0
   12.3414  -10.6746   13.9236 C   0  0  0  0  0  0  0  0  0  0  0  0
  1  2  2  0
  1  6  1  0
  2  3  1  0
  3  4  2  0
  4  5  1  0
  5  6  2  0
  6  7  1  0
  7  8  1  0
  8  9  1  0
  9 10  2  0
  9 11  1  0
 11 12  1  6
 11 13  1  0
 13 14  1  6
 13 19  1  0
 14 15  1  0
 15 16  1  0
 16 17  1  0
 17 18  1  0
 19 20  1  0
 20 21  2  0
 20 22  1  0
 22 23  1  0
 22 34  1  1
 23 24  1  0
 24 25  2  0
 24 26  1  0
 26 27  1  0
 27 28  1  0
 28 29  2  0
 28 33  1  0
 29 30  1  0
 30 31  2  0
 31 32  1  0
 32 33  2  0
 34 35  1  0
 35 36  1  0
 36 37  2  0
 36 38  1  0
 38 39  1  0
 39 40  1  0
 39 41  1  0
 41 42  2  0
 41 46  1  0
 42 43  1  0
 43 44  2  0
 44 45  1  0
 45 46  2  0
M  CHG  1  18   1
M  END
$$$$
