
     RDKit          3D

 46 48  0  0  0  0  0  0  0  0999 V2000
    5.0222  -16.3535    9.1811 C   0  0  0  0  0  0  0  0  0  0  0  0
    4.9872  -17.7354    9.2785 C   0  0  0  0  0  0  0  0  0  0  0  0
    5.7124  -18.5159    8.4086 C   0  0  0  0  0  0  0  0  0  0  0  0
    6.4685  -17.8824    7.4452 C   0  0  0  0  0  0  0  0  0  0  0  0
    6.4939  -16.5158    7.3601 C   0  0  0  0  0  0  0  0  0  0  0  0
    5.7633  -15.7048    8.2351 C   0  0  0  0  0  0  0  0  0  0  0  0
    5.7936  -14.2361    8.1295 C   0  0  0  0  0  0  0  0  0  0  0  0
    4.9495  -13.5556    9.0816 N   0  0  0  0  0  0  0  0  0  0  0  0
    3.7715  -12.8782    8.7789 C   0  0  0  0  0  0  0  0  0  0  0  0
    3.8011  -11.9511    7.9150 O   0  0  0  0  0  0  0  0  0  0  0  0
    2.4518  -13.1766    9.4162 C   0  0  1  0  0  0  0  0  0  0  0  0
    1.9269  -14.3729    8.9799 O   0  0  0  0  0  0  0  0  0  0  0  0
    2.4107  -12.9362   10.8782 C   0  0  2  0  0  0  0  0  0  0  0  0
    1.0561  -12.8991   11.5122 C   0  0  0  0  0  0  0  0  0  0  0  0
    0.2451  -14.1347   11.4529 C   0  0  0  0  0  0  0  0  0  0  0  0
   -1.0586  -13.8293   12.2116 C   0  0  0  0  0  0  0  0  0  0  0  0
   -1.5503  -15.0713   12.9223 C   0  0  0  0  0  0  0  0  0  0  0  0
   -2.8138  -14.7337   13.5504 N   0  0  0  0  0  4  0  0  0  0  0  0
    3.0988  -11.7384   11.3075 N   0  0  0  0  0  0  0  0  0  0  0  0
    3.2055  -11.2825   12.6479 C   0  0  0  0  0  0  0  0  0  0  0  0
    2.6829  -11.9670   13.5541 O   0  0  0  0  0  0  0  0  0  0  0  0
    3.9020  -10.0379   13.0288 C   0  0  1  0  0  0  0  0  0  0  0  0
    3.2214   -9.5148   14.1769 N   0  0  0  0  0  0  0  0  0  0  0  0
    1.9557   -8.9555   14.2304 C   0  0  0  0  0  0  0  0  0  0  0  0
    1.4928   -8.3927   13.2189 O   0  0  0  0  0  0  0  0  0  0  0  0
    1.2153   -9.0248   15.4051 O   0  0  0  0  0  0  0  0  0  0  0  0
    0.2667   -8.0583   15.7724 C   0  0  0  0  0  0  0  0  0  0  0  0
   -0.2819   -8.4657   17.0997 C   0  0  0  0  0  0  0  0  0  0  0  0
    0.4270   -8.1659   18.2212 C   0  0  0  0  0  0  0  0  0  0  0  0
   -0.0637   -8.5281   19.4592 C   0  0  0  0  0  0  0  0  0  0  0  0
   -1.2779   -9.1985   19.5795 C   0  0  0  0  0  0  0  0  0  0  0  0
   -1.9726   -9.4892   18.4397 C   0  0  0  0  0  0  0  0  0  0  0  0
   -1.4903   -9.1315   17.2002 C   0  0  0  0  0  0  0  0  0  0  0  0
    5.3678  -10.2990   13.2436 C   0  0  0  0  0  0  0  0  0  0  0  0
    6.1057   -8.9982   13.3232 C   0  0  0  0  0  0  0  0  0  0  0  0
    7.5478   -9.2379   13.6132 C   0  0  0  0  0  0  0  0  0  0  0  0
    7.9213  -10.3788   13.9458 O   0  0  0  0  0  0  0  0  0  0  0  0
    8.4648   -8.1550   13.5043 N   0  0  0  0  0  0  0  0  0  0  0  0
    9.3846   -8.0996   12.4696 N   0  0  0  0  0  0  0  0  0  0  0  0
    9.5296   -9.2394   11.5998 C   0  0  0  0  0  0  0  0  0  0  0  0
   10.1678   -6.9433   12.2648 C   0  0  0  0  0  0  0  0  0  0  0  0
   10.7377   -6.2482   13.3195 C   0  0  0  0  0  0  0  0  0  0  0  0
   11.4791   -5.1436   13.0556 C   0  0  0  0  0  0  0  0  0  0  0  0
   11.6654   -4.7136   11.7431 C   0  0  0  0  0  0  0  0  0  0  0  0
   11.1077   -5.3931   10.7045 C   0  0  0  0  0  0  0  0  0  0  0  0
   10.3556   -6.5132   10.9701 C   0  0  0  0  0  0  0  0  0  0  0  0
  1  2  2  0
  1  6  1  0
  2  3  1  0
  3  4  2  0
  4  5  1  0
  5  6  2  0
  6  7  1  0
  7  8  1  0
  8  9  1  0
  9 10  2  0
  9 11  1  0
 11 12  1  1
 11 13  1  0
 13 14  1  6
 13 19  1  0
 14 15  1  0
 15 16  1  0
 16 17  1  0
 17 18  1  0
 19 20  1  0
 20 21  2  0
 20 22  1  0
 22 23  1  0
 22 34  1  1
 23 24  1  0
 24 25  2  0
 24 26  1  0
 26 27  1  0
 27 28  1  0
 28 29  2  0
 28 33  1  0
 29 30  1  0
 30 31  2  0
 31 32  1  0
 32 33  2  0
 34 35  1  0
 35 36  1  0
 36 37  2  0
 36 38  1  0
 38 39  1  0
 39 40  1  0
 39 41  1  0
 41 42  2  0
 41 46  1  0
 42 43  1  0
 43 44  2  0
 44 45  1  0
 45 46  2  0
M  CHG  1  18   1
M  END
$$$$
