
     RDKit          3D

 46 48  0  0  0  0  0  0  0  0999 V2000
    9.1601  -14.0951   10.3807 C   0  0  0  0  0  0  0  0  0  0  0  0
   10.1285  -13.9049   11.3535 C   0  0  0  0  0  0  0  0  0  0  0  0
    9.8538  -14.1719   12.6746 C   0  0  0  0  0  0  0  0  0  0  0  0
    8.5938  -14.6313   12.9950 C   0  0  0  0  0  0  0  0  0  0  0  0
    7.6463  -14.8148   12.0234 C   0  0  0  0  0  0  0  0  0  0  0  0
    7.9060  -14.5487   10.6748 C   0  0  0  0  0  0  0  0  0  0  0  0
    6.8766  -14.7438    9.6397 C   0  0  0  0  0  0  0  0  0  0  0  0
    5.9949  -13.6156    9.4602 N   0  0  0  0  0  0  0  0  0  0  0  0
    4.8409  -13.6069    8.6817 C   0  0  0  0  0  0  0  0  0  0  0  0
    4.5056  -14.6646    8.0689 O   0  0  0  0  0  0  0  0  0  0  0  0
    3.9560  -12.4123    8.5175 C   0  0  1  0  0  0  0  0  0  0  0  0
    3.2457  -12.4548    7.3383 O   0  0  0  0  0  0  0  0  0  0  0  0
    3.1895  -12.0478    9.7325 C   0  0  2  0  0  0  0  0  0  0  0  0
    2.4070  -13.1441   10.3839 C   0  0  0  0  0  0  0  0  0  0  0  0
    2.0141  -12.9503   11.7967 C   0  0  0  0  0  0  0  0  0  0  0  0
    1.2403  -14.2165   12.2045 C   0  0  0  0  0  0  0  0  0  0  0  0
    1.0617  -14.2560   13.7066 C   0  0  0  0  0  0  0  0  0  0  0  0
   -0.0460  -13.3765   14.0297 N   0  0  0  0  0  4  0  0  0  0  0  0
    2.2760  -10.9404    9.5542 N   0  0  0  0  0  0  0  0  0  0  0  0
    2.3726   -9.6781   10.1970 C   0  0  0  0  0  0  0  0  0  0  0  0
    3.2247   -9.5323   11.1000 O   0  0  0  0  0  0  0  0  0  0  0  0
    1.5159   -8.5255    9.8549 C   0  0  1  0  0  0  0  0  0  0  0  0
    0.8986   -8.0898   11.0732 N   0  0  0  0  0  0  0  0  0  0  0  0
   -0.0033   -8.7840   11.8622 C   0  0  0  0  0  0  0  0  0  0  0  0
   -0.4757   -9.8607   11.4477 O   0  0  0  0  0  0  0  0  0  0  0  0
   -0.3734   -8.2776   13.1029 O   0  0  0  0  0  0  0  0  0  0  0  0
    0.5486   -7.9938   14.1218 C   0  0  0  0  0  0  0  0  0  0  0  0
    0.4630   -6.5284   14.3938 C   0  0  0  0  0  0  0  0  0  0  0  0
   -0.2202   -5.7394   13.5216 C   0  0  0  0  0  0  0  0  0  0  0  0
   -0.3168   -4.3827   13.7561 C   0  0  0  0  0  0  0  0  0  0  0  0
    0.2765   -3.8059   14.8756 C   0  0  0  0  0  0  0  0  0  0  0  0
    0.9578   -4.6177   15.7377 C   0  0  0  0  0  0  0  0  0  0  0  0
    1.0591   -5.9725   15.5116 C   0  0  0  0  0  0  0  0  0  0  0  0
    2.3170   -7.4636    9.1525 C   0  0  0  0  0  0  0  0  0  0  0  0
    3.2794   -6.8385   10.1146 C   0  0  0  0  0  0  0  0  0  0  0  0
    4.0718   -5.7739    9.4363 C   0  0  0  0  0  0  0  0  0  0  0  0
    3.6449   -5.2781    8.3763 O   0  0  0  0  0  0  0  0  0  0  0  0
    5.3003   -5.3500   10.0163 N   0  0  0  0  0  0  0  0  0  0  0  0
    5.3819   -4.1643   10.7286 N   0  0  0  0  0  0  0  0  0  0  0  0
    4.1674   -3.4684   11.0715 C   0  0  0  0  0  0  0  0  0  0  0  0
    6.6349   -3.6440   11.1178 C   0  0  0  0  0  0  0  0  0  0  0  0
    6.8896   -3.2441   12.4200 C   0  0  0  0  0  0  0  0  0  0  0  0
    8.1147   -2.7515   12.7295 C   0  0  0  0  0  0  0  0  0  0  0  0
    9.1034   -2.6489   11.7525 C   0  0  0  0  0  0  0  0  0  0  0  0
    8.8576   -3.0404   10.4728 C   0  0  0  0  0  0  0  0  0  0  0  0
    7.6161   -3.5400   10.1572 C   0  0  0  0  0  0  0  0  0  0  0  0
  1  2  2  0
  1  6  1  0
  2  3  1  0
  3  4  2  0
  4  5  1  0
  5  6  2  0
  6  7  1  0
  7  8  1  0
  8  9  1  0
  9 10  2  0
  9 11  1  0
 11 12  1  6
 11 13  1  0
 13 14  1  6
 13 19  1  0
 14 15  1  0
 15 16  1  0
 16 17  1  0
 17 18  1  0
 19 20  1  0
 20 21  2  0
 20 22  1  0
 22 23  1  0
 22 34  1  1
 23 24  1  0
 24 25  2  0
 24 26  1  0
 26 27  1  0
 27 28  1  0
 28 29  2  0
 28 33  1  0
 29 30  1  0
 30 31  2  0
 31 32  1  0
 32 33  2  0
 34 35  1  0
 35 36  1  0
 36 37  2  0
 36 38  1  0
 38 39  1  0
 39 40  1  0
 39 41  1  0
 41 42  2  0
 41 46  1  0
 42 43  1  0
 43 44  2  0
 44 45  1  0
 45 46  2  0
M  CHG  1  18   1
M  END
$$$$
