
     RDKit          3D

 46 48  0  0  0  0  0  0  0  0999 V2000
    8.3945  -11.4813   11.1645 C   0  0  0  0  0  0  0  0  0  0  0  0
    8.6550  -10.1984   11.6192 C   0  0  0  0  0  0  0  0  0  0  0  0
    7.6236   -9.3269   11.8810 C   0  0  0  0  0  0  0  0  0  0  0  0
    6.3335   -9.7691   11.6777 C   0  0  0  0  0  0  0  0  0  0  0  0
    6.0904  -11.0396   11.2280 C   0  0  0  0  0  0  0  0  0  0  0  0
    7.1255  -11.9405   10.9558 C   0  0  0  0  0  0  0  0  0  0  0  0
    6.8516  -13.3023   10.4662 C   0  0  0  0  0  0  0  0  0  0  0  0
    5.4709  -13.5423   10.1225 N   0  0  0  0  0  0  0  0  0  0  0  0
    4.8183  -13.0421    8.9992 C   0  0  0  0  0  0  0  0  0  0  0  0
    5.4488  -12.2706    8.2156 O   0  0  0  0  0  0  0  0  0  0  0  0
    3.3991  -13.3597    8.6500 C   0  0  1  0  0  0  0  0  0  0  0  0
    3.2113  -14.7059    8.4279 O   0  0  0  0  0  0  0  0  0  0  0  0
    2.3938  -12.6897    9.5087 C   0  0  2  0  0  0  0  0  0  0  0  0
    0.9704  -12.7624    9.0536 C   0  0  0  0  0  0  0  0  0  0  0  0
   -0.0723  -12.8538   10.0988 C   0  0  0  0  0  0  0  0  0  0  0  0
   -1.4157  -12.6159    9.3867 C   0  0  0  0  0  0  0  0  0  0  0  0
   -2.4145  -13.6781    9.7914 C   0  0  0  0  0  0  0  0  0  0  0  0
   -3.1699  -13.1511   10.9124 N   0  0  0  0  0  4  0  0  0  0  0  0
    2.6693  -11.2952    9.7765 N   0  0  0  0  0  0  0  0  0  0  0  0
    2.1127  -10.5319   10.8366 C   0  0  0  0  0  0  0  0  0  0  0  0
    0.8765  -10.5748   11.0173 O   0  0  0  0  0  0  0  0  0  0  0  0
    2.9196   -9.6865   11.7385 C   0  0  1  0  0  0  0  0  0  0  0  0
    2.6491   -8.3239   11.3844 N   0  0  0  0  0  0  0  0  0  0  0  0
    3.5489   -7.3677   10.9439 C   0  0  0  0  0  0  0  0  0  0  0  0
    4.7082   -7.7126   10.6417 O   0  0  0  0  0  0  0  0  0  0  0  0
    3.1550   -6.0382   10.8433 O   0  0  0  0  0  0  0  0  0  0  0  0
    1.9395   -5.6396   10.2666 C   0  0  0  0  0  0  0  0  0  0  0  0
    1.2007   -4.8563   11.3006 C   0  0  0  0  0  0  0  0  0  0  0  0
    0.0719   -4.1911   10.9355 C   0  0  0  0  0  0  0  0  0  0  0  0
   -0.6302   -3.4650   11.8762 C   0  0  0  0  0  0  0  0  0  0  0  0
   -0.1998   -3.4019   13.1986 C   0  0  0  0  0  0  0  0  0  0  0  0
    0.9366   -4.0777   13.5425 C   0  0  0  0  0  0  0  0  0  0  0  0
    1.6433   -4.8047   12.6103 C   0  0  0  0  0  0  0  0  0  0  0  0
    2.6288  -10.0220   13.1757 C   0  0  0  0  0  0  0  0  0  0  0  0
    3.7935   -9.6293   14.0312 C   0  0  0  0  0  0  0  0  0  0  0  0
    3.9195  -10.5561   15.1916 C   0  0  0  0  0  0  0  0  0  0  0  0
    3.0705  -11.4539   15.3497 O   0  0  0  0  0  0  0  0  0  0  0  0
    5.0079  -10.3916   16.0936 N   0  0  0  0  0  0  0  0  0  0  0  0
    5.2870  -11.3471   17.0575 N   0  0  0  0  0  0  0  0  0  0  0  0
    6.4612  -11.1913   17.8785 C   0  0  0  0  0  0  0  0  0  0  0  0
    4.4337  -12.4567   17.2384 C   0  0  0  0  0  0  0  0  0  0  0  0
    3.1537  -12.3207   17.7515 C   0  0  0  0  0  0  0  0  0  0  0  0
    2.3837  -13.4270   17.9015 C   0  0  0  0  0  0  0  0  0  0  0  0
    2.8723  -14.6826   17.5448 C   0  0  0  0  0  0  0  0  0  0  0  0
    4.1285  -14.8208   17.0406 C   0  0  0  0  0  0  0  0  0  0  0  0
    4.9106  -13.7002   16.8879 C   0  0  0  0  0  0  0  0  0  0  0  0
  1  2  2  0
  1  6  1  0
  2  3  1  0
  3  4  2  0
  4  5  1  0
  5  6  2  0
  6  7  1  0
  7  8  1  0
  8  9  1  0
  9 10  2  0
  9 11  1  0
 11 12  1  1
 11 13  1  0
 13 14  1  6
 13 19  1  0
 14 15  1  0
 15 16  1  0
 16 17  1  0
 17 18  1  0
 19 20  1  0
 20 21  2  0
 20 22  1  0
 22 23  1  0
 22 34  1  1
 23 24  1  0
 24 25  2  0
 24 26  1  0
 26 27  1  0
 27 28  1  0
 28 29  2  0
 28 33  1  0
 29 30  1  0
 30 31  2  0
 31 32  1  0
 32 33  2  0
 34 35  1  0
 35 36  1  0
 36 37  2  0
 36 38  1  0
 38 39  1  0
 39 40  1  0
 39 41  1  0
 41 42  2  0
 41 46  1  0
 42 43  1  0
 43 44  2  0
 44 45  1  0
 45 46  2  0
M  CHG  1  18   1
M  END
$$$$
