
     RDKit          3D

 29 33  0  0  0  0  0  0  0  0999 V2000
   16.7825    9.1412  -10.3328 C   0  0  0  0  0  0  0  0  0  0  0  0
   16.7300   10.3442  -11.1746 C   0  0  0  0  0  0  0  0  0  0  0  0
   17.5162   11.5347  -10.6550 C   0  0  0  0  0  0  0  0  0  0  0  0
   18.8597   11.0439  -10.4702 C   0  0  0  0  0  0  0  0  0  0  0  0
   18.9623    9.9092   -9.7199 C   0  0  0  0  0  0  0  0  0  0  0  0
   17.8094    9.2261   -9.1573 C   0  0  0  0  0  0  0  0  0  0  0  0
   20.0092   11.7013  -11.1164 C   0  0  1  0  0  0  0  0  0  0  0  0
   20.6331   10.6063  -11.9800 C   0  0  0  0  0  0  0  0  0  0  0  0
   21.7318    9.8572  -11.3141 C   0  0  0  0  0  0  0  0  0  0  0  0
   21.3656    9.2350  -10.0177 C   0  0  0  0  0  0  0  0  0  0  0  0
   20.2948    8.6078   -8.1678 C   0  0  0  0  0  0  0  0  0  0  0  0
   19.2680    8.4774   -7.1454 C   0  0  0  0  0  0  0  0  0  0  0  0
   15.3061   10.7966  -11.2897 C   0  0  0  0  0  0  0  0  0  0  0  0
   14.4916   10.5974  -12.3754 C   0  0  0  0  0  0  0  0  0  0  0  0
   14.5836   11.4727  -10.3569 C   0  0  0  0  0  0  0  0  0  0  0  0
   12.1526   11.1775  -12.9374 C   0  0  0  0  0  0  0  0  0  0  0  0
   20.5762   14.0198  -12.0559 C   0  0  0  0  0  0  0  0  0  0  0  0
   21.7037   14.3322  -11.3567 C   0  0  0  0  0  0  0  0  0  0  0  0
   22.4619   15.4229  -11.7035 C   0  0  0  0  0  0  0  0  0  0  0  0
   22.0700   16.1977  -12.7665 C   0  0  0  0  0  0  0  0  0  0  0  0
   20.9491   15.9061  -13.4797 C   0  0  0  0  0  0  0  0  0  0  0  0
   20.1933   14.8173  -13.1322 C   0  0  0  0  0  0  0  0  0  0  0  0
   20.1845    9.2738   -9.3290 N   0  0  0  0  0  0  0  0  0  0  0  0
   22.2013    8.5226   -9.2481 N   0  0  0  0  0  0  0  0  0  0  0  0
   21.5849    8.1475   -8.1576 N   0  0  0  0  0  0  0  0  0  0  0  0
   13.3119   11.1599  -12.0563 N   0  0  0  0  0  0  0  0  0  0  0  0
   13.3530   11.6834  -10.8601 N   0  0  0  0  0  0  0  0  0  0  0  0
   19.7484   12.9153  -11.7421 N   0  0  0  0  0  0  0  0  0  0  0  0
   23.0217   17.5946  -13.2268 Cl  0  0  0  0  0  0  0  0  0  0  0  0
  1  2  1  1
  6  1  1  0
  3  2  1  1
  2 13  1  0
  4  3  1  0
  4  5  2  0
  7  4  1  0
  6  5  1  6
  5 23  1  0
  7  8  1  0
  7 28  1  6
  8  9  1  6
  9 10  1  6
 10 23  1  0
 10 24  2  0
 12 11  1  6
 23 11  1  0
 11 25  2  0
 13 14  2  0
 13 15  1  0
 14 26  1  0
 15 27  2  0
 16 26  1  6
 17 18  2  0
 17 22  1  0
 17 28  1  0
 18 19  1  0
 19 20  2  0
 20 21  1  0
 20 29  1  0
 21 22  2  0
 24 25  1  0
 26 27  1  0
M  END
$$$$
