
     RDKit          3D

 29 33  0  0  0  0  0  0  0  0999 V2000
   16.6097   10.4822  -10.3012 C   0  0  0  0  0  0  0  0  0  0  0  0
   17.0118   11.5523  -11.2653 C   0  0  0  0  0  0  0  0  0  0  0  0
   18.1942   11.2045  -12.1522 C   0  0  0  0  0  0  0  0  0  0  0  0
   19.2930   10.6721  -11.3259 C   0  0  0  0  0  0  0  0  0  0  0  0
   18.9522    9.6977  -10.4397 C   0  0  0  0  0  0  0  0  0  0  0  0
   17.5805    9.3041  -10.4285 C   0  0  0  0  0  0  0  0  0  0  0  0
   20.6282   11.2520  -11.6416 C   0  0  1  0  0  0  0  0  0  0  0  0
   21.5874   10.0235  -11.7137 C   0  0  0  0  0  0  0  0  0  0  0  0
   22.1774    9.7361  -10.3916 C   0  0  0  0  0  0  0  0  0  0  0  0
   21.2053    9.0838   -9.4985 C   0  0  0  0  0  0  0  0  0  0  0  0
   19.3595    8.3870   -8.4824 C   0  0  0  0  0  0  0  0  0  0  0  0
   17.9741    8.1583   -8.1025 C   0  0  0  0  0  0  0  0  0  0  0  0
   17.2522   12.8147  -10.5511 C   0  0  0  0  0  0  0  0  0  0  0  0
   17.6438   13.9969  -11.1246 C   0  0  0  0  0  0  0  0  0  0  0  0
   17.1328   13.0428   -9.2065 C   0  0  0  0  0  0  0  0  0  0  0  0
   18.1525   16.3052  -10.3347 C   0  0  0  0  0  0  0  0  0  0  0  0
   20.6292   13.1238  -13.3154 C   0  0  0  0  0  0  0  0  0  0  0  0
   21.5815   13.9776  -12.7992 C   0  0  0  0  0  0  0  0  0  0  0  0
   21.5518   15.3394  -13.0930 C   0  0  0  0  0  0  0  0  0  0  0  0
   20.5780   15.8831  -13.9038 C   0  0  0  0  0  0  0  0  0  0  0  0
   19.6293   15.0253  -14.4163 C   0  0  0  0  0  0  0  0  0  0  0  0
   19.6611   13.6799  -14.1244 C   0  0  0  0  0  0  0  0  0  0  0  0
   19.8439    9.0828   -9.5122 N   0  0  0  0  0  0  0  0  0  0  0  0
   21.5543    8.3508   -8.4105 N   0  0  0  0  0  0  0  0  0  0  0  0
   20.4777    7.9430   -7.8157 N   0  0  0  0  0  0  0  0  0  0  0  0
   17.7600   14.9179  -10.1621 N   0  0  0  0  0  0  0  0  0  0  0  0
   17.4543   14.3513   -9.0058 N   0  0  0  0  0  0  0  0  0  0  0  0
   20.6392   11.7099  -13.0303 N   0  0  0  0  0  0  0  0  0  0  0  0
   20.5566   17.6071  -14.2640 Cl  0  0  0  0  0  0  0  0  0  0  0  0
  2  1  1  0
  6  1  1  0
  3  2  1  0
  2 13  1  0
  4  3  1  0
  4  5  2  0
  7  4  1  0
  5  6  1  0
  5 23  1  0
  7  8  1  0
  7 28  1  6
  8  9  1  0
  9 10  1  0
 10 23  1  0
 10 24  2  0
 11 12  1  0
 23 11  1  0
 11 25  2  0
 13 14  2  0
 13 15  1  0
 14 26  1  0
 15 27  2  0
 26 16  1  0
 17 18  2  0
 17 22  1  0
 17 28  1  0
 18 19  1  0
 19 20  2  0
 20 21  1  0
 20 29  1  0
 21 22  2  0
 24 25  1  0
 26 27  1  0
M  END
$$$$
