
     RDKit          3D

 29 33  0  0  0  0  0  0  0  0999 V2000
   16.6254   10.8465   -9.7990 C   0  0  0  0  0  0  0  0  0  0  0  0
   16.9413   11.7138  -10.9755 C   0  0  0  0  0  0  0  0  0  0  0  0
   17.9043   11.1058  -11.9798 C   0  0  0  0  0  0  0  0  0  0  0  0
   19.0819   10.5688  -11.2737 C   0  0  0  0  0  0  0  0  0  0  0  0
   18.8207    9.7771  -10.1985 C   0  0  0  0  0  0  0  0  0  0  0  0
   17.4438    9.5551   -9.8958 C   0  0  0  0  0  0  0  0  0  0  0  0
   20.3846   10.9351  -11.8963 C   0  0  1  0  0  0  0  0  0  0  0  0
   21.1970    9.6035  -11.9295 C   0  0  0  0  0  0  0  0  0  0  0  0
   21.9898    9.4380  -10.6956 C   0  0  0  0  0  0  0  0  0  0  0  0
   21.1416    9.0389   -9.5600 C   0  0  0  0  0  0  0  0  0  0  0  0
   19.4566    8.7176   -8.1521 C   0  0  0  0  0  0  0  0  0  0  0  0
   18.1490    8.7115   -7.5148 C   0  0  0  0  0  0  0  0  0  0  0  0
   17.4236   13.0269  -10.5231 C   0  0  0  0  0  0  0  0  0  0  0  0
   16.6768   13.9719   -9.8680 C   0  0  0  0  0  0  0  0  0  0  0  0
   18.6834   13.5428  -10.6680 C   0  0  0  0  0  0  0  0  0  0  0  0
   17.0610   16.2546   -8.9447 C   0  0  0  0  0  0  0  0  0  0  0  0
   20.7607   12.3626  -13.9277 C   0  0  0  0  0  0  0  0  0  0  0  0
   20.9769   12.4506  -15.2869 C   0  0  0  0  0  0  0  0  0  0  0  0
   21.5327   13.5991  -15.8472 C   0  0  0  0  0  0  0  0  0  0  0  0
   21.8856   14.6836  -15.0722 C   0  0  0  0  0  0  0  0  0  0  0  0
   21.6673   14.5898  -13.7150 C   0  0  0  0  0  0  0  0  0  0  0  0
   21.1178   13.4536  -13.1640 C   0  0  0  0  0  0  0  0  0  0  0  0
   19.8065    9.1980   -9.3463 N   0  0  0  0  0  0  0  0  0  0  0  0
   21.6147    8.4311   -8.4422 N   0  0  0  0  0  0  0  0  0  0  0  0
   20.6321    8.2426   -7.6187 N   0  0  0  0  0  0  0  0  0  0  0  0
   17.4546   15.0311   -9.6202 N   0  0  0  0  0  0  0  0  0  0  0  0
   18.6628   14.7802  -10.0985 N   0  0  0  0  0  0  0  0  0  0  0  0
   20.1835   11.1873  -13.3227 N   0  0  0  0  0  0  0  0  0  0  0  0
   22.5869   16.1270  -15.7984 Cl  0  0  0  0  0  0  0  0  0  0  0  0
  2  1  1  0
  6  1  1  0
  3  2  1  0
  2 13  1  0
  4  3  1  0
  4  5  2  0
  7  4  1  0
  5  6  1  0
  5 23  1  0
  7  8  1  0
  7 28  1  6
  8  9  1  0
  9 10  1  0
 10 23  1  0
 10 24  2  0
 11 12  1  0
 23 11  1  0
 11 25  2  0
 13 14  2  0
 13 15  1  0
 14 26  1  0
 15 27  2  0
 26 16  1  0
 17 18  2  0
 17 22  1  0
 17 28  1  0
 18 19  1  0
 19 20  2  0
 20 21  1  0
 20 29  1  0
 21 22  2  0
 24 25  1  0
 26 27  1  0
M  END
$$$$
