
     RDKit          3D

 29 33  0  0  0  0  0  0  0  0999 V2000
   16.9709   11.1392   -9.5409 C   0  0  0  0  0  0  0  0  0  0  0  0
   17.1643   11.8935  -10.8175 C   0  0  0  0  0  0  0  0  0  0  0  0
   17.9763   11.1664  -11.8748 C   0  0  0  0  0  0  0  0  0  0  0  0
   19.2156   10.6415  -11.2728 C   0  0  0  0  0  0  0  0  0  0  0  0
   19.0660    9.9521  -10.1095 C   0  0  0  0  0  0  0  0  0  0  0  0
   17.7313    9.8120   -9.6241 C   0  0  0  0  0  0  0  0  0  0  0  0
   20.4414   10.9021  -12.0781 C   0  0  1  0  0  0  0  0  0  0  0  0
   21.2025    9.5402  -12.0942 C   0  0  0  0  0  0  0  0  0  0  0  0
   22.1371    9.4444  -10.9558 C   0  0  0  0  0  0  0  0  0  0  0  0
   21.4248    9.1748   -9.6956 C   0  0  0  0  0  0  0  0  0  0  0  0
   19.9187    9.0390   -8.0714 C   0  0  0  0  0  0  0  0  0  0  0  0
   18.7008    9.1385   -7.2822 C   0  0  0  0  0  0  0  0  0  0  0  0
   17.7388   13.2185  -10.5422 C   0  0  0  0  0  0  0  0  0  0  0  0
   18.9985   13.6330  -10.8902 C   0  0  0  0  0  0  0  0  0  0  0  0
   17.1363   14.2665   -9.8995 C   0  0  0  0  0  0  0  0  0  0  0  0
   20.3485   15.7127  -10.6384 C   0  0  0  0  0  0  0  0  0  0  0  0
   21.0660   11.4604  -14.4453 C   0  0  0  0  0  0  0  0  0  0  0  0
   21.8148   10.5490  -15.1600 C   0  0  0  0  0  0  0  0  0  0  0  0
   22.7661   10.9769  -16.0840 C   0  0  0  0  0  0  0  0  0  0  0  0
   22.9949   12.3163  -16.3185 C   0  0  0  0  0  0  0  0  0  0  0  0
   22.2439   13.2220  -15.6014 C   0  0  0  0  0  0  0  0  0  0  0  0
   21.3045   12.7963  -14.6890 C   0  0  0  0  0  0  0  0  0  0  0  0
   20.1320    9.4051   -9.3362 N   0  0  0  0  0  0  0  0  0  0  0  0
   22.0143    8.6419   -8.5950 N   0  0  0  0  0  0  0  0  0  0  0  0
   21.1364    8.5618   -7.6453 N   0  0  0  0  0  0  0  0  0  0  0  0
   19.1610   14.8934  -10.4740 N   0  0  0  0  0  0  0  0  0  0  0  0
   18.0451   15.2810   -9.8773 N   0  0  0  0  0  0  0  0  0  0  0  0
   20.0724   11.0443  -13.4860 N   0  0  0  0  0  0  0  0  0  0  0  0
   24.2018   12.8383  -17.4905 Cl  0  0  0  0  0  0  0  0  0  0  0  0
  2  1  1  0
  6  1  1  0
  3  2  1  0
  2 13  1  0
  4  3  1  0
  4  5  2  0
  7  4  1  0
  5  6  1  0
  5 23  1  0
  7  8  1  0
  7 28  1  6
  8  9  1  0
  9 10  1  0
 10 23  1  0
 10 24  2  0
 11 12  1  0
 23 11  1  0
 11 25  2  0
 13 14  2  0
 13 15  1  0
 14 26  1  0
 15 27  2  0
 26 16  1  0
 17 18  2  0
 17 22  1  0
 17 28  1  0
 18 19  1  0
 19 20  2  0
 20 21  1  0
 20 29  1  0
 21 22  2  0
 24 25  1  0
 26 27  1  0
M  END
$$$$
