
     RDKit          3D

 29 33  0  0  0  0  0  0  0  0999 V2000
   21.3564   12.4408  -11.6410 C   0  0  0  0  0  0  0  0  0  0  0  0
   20.0325   12.7729  -12.1847 C   0  0  0  0  0  0  0  0  0  0  0  0
   19.2428   11.5977  -12.7333 C   0  0  0  0  0  0  0  0  0  0  0  0
   19.1760   10.6519  -11.6465 C   0  0  0  0  0  0  0  0  0  0  0  0
   20.3771   10.3317  -11.0845 C   0  0  0  0  0  0  0  0  0  0  0  0
   21.6361   10.9071  -11.5275 C   0  0  0  0  0  0  0  0  0  0  0  0
   17.8838   10.1417  -11.1557 C   0  0  1  0  0  0  0  0  0  0  0  0
   17.8521   10.5497   -9.6837 C   0  0  0  0  0  0  0  0  0  0  0  0
   18.3550    9.5059   -8.7514 C   0  0  0  0  0  0  0  0  0  0  0  0
   19.7273    9.0208   -9.0403 C   0  0  0  0  0  0  0  0  0  0  0  0
   21.7186    8.6494   -9.9671 C   0  0  0  0  0  0  0  0  0  0  0  0
   22.8390    8.6963  -10.8941 C   0  0  0  0  0  0  0  0  0  0  0  0
   20.1998   13.7359  -13.3205 C   0  0  0  0  0  0  0  0  0  0  0  0
   19.2965   13.9396  -14.3326 C   0  0  0  0  0  0  0  0  0  0  0  0
   21.2567   14.5615  -13.5454 C   0  0  0  0  0  0  0  0  0  0  0  0
   19.2094   15.3932  -16.3333 C   0  0  0  0  0  0  0  0  0  0  0  0
   15.7633   11.4538  -11.7569 C   0  0  0  0  0  0  0  0  0  0  0  0
   14.6052   11.2375  -11.0716 C   0  0  0  0  0  0  0  0  0  0  0  0
   13.6638   12.2303  -10.9584 C   0  0  0  0  0  0  0  0  0  0  0  0
   13.9035   13.4478  -11.5451 C   0  0  0  0  0  0  0  0  0  0  0  0
   15.0516   13.6877  -12.2338 C   0  0  0  0  0  0  0  0  0  0  0  0
   15.9902   12.6958  -12.3462 C   0  0  0  0  0  0  0  0  0  0  0  0
   20.5839    9.3631  -10.0503 N   0  0  0  0  0  0  0  0  0  0  0  0
   20.3710    8.0806   -8.3333 N   0  0  0  0  0  0  0  0  0  0  0  0
   21.5428    7.8526   -8.8669 N   0  0  0  0  0  0  0  0  0  0  0  0
   19.8422   14.8780  -15.1272 N   0  0  0  0  0  0  0  0  0  0  0  0
   21.0066   15.2561  -14.6710 N   0  0  0  0  0  0  0  0  0  0  0  0
   16.7670   10.4687  -11.9168 N   0  0  0  0  0  0  0  0  0  0  0  0
   12.7163   14.7293  -11.4139 Cl  0  0  0  0  0  0  0  0  0  0  0  0
  1  2  1  1
  6  1  1  0
  3  2  1  1
  2 13  1  0
  4  3  1  0
  4  5  2  0
  7  4  1  0
  6  5  1  6
  5 23  1  0
  7  8  1  0
  7 28  1  6
  8  9  1  6
  9 10  1  6
 10 23  1  0
 10 24  2  0
 12 11  1  6
 23 11  1  0
 11 25  2  0
 13 14  2  0
 13 15  1  0
 14 26  1  0
 15 27  2  0
 16 26  1  6
 17 18  2  0
 17 22  1  0
 17 28  1  0
 18 19  1  0
 19 20  2  0
 20 21  1  0
 20 29  1  0
 21 22  2  0
 24 25  1  0
 26 27  1  0
M  END
$$$$
