
     RDKit          3D

 29 33  0  0  0  0  0  0  0  0999 V2000
   17.2547   10.3476  -12.0360 C   0  0  0  0  0  0  0  0  0  0  0  0
   17.7715   11.7116  -12.2123 C   0  0  0  0  0  0  0  0  0  0  0  0
   18.3743   12.3429  -10.9699 C   0  0  0  0  0  0  0  0  0  0  0  0
   19.3896   11.4157  -10.5343 C   0  0  0  0  0  0  0  0  0  0  0  0
   18.9689   10.1268  -10.3839 C   0  0  0  0  0  0  0  0  0  0  0  0
   17.6057    9.7029  -10.6559 C   0  0  0  0  0  0  0  0  0  0  0  0
   20.7859   11.8457  -10.3431 C   0  0  1  0  0  0  0  0  0  0  0  0
   21.5866   10.9621  -11.2982 C   0  0  0  0  0  0  0  0  0  0  0  0
   22.1261    9.7243  -10.6751 C   0  0  0  0  0  0  0  0  0  0  0  0
   21.1098    8.8582  -10.0278 C   0  0  0  0  0  0  0  0  0  0  0  0
   19.2179    8.0293   -9.1937 C   0  0  0  0  0  0  0  0  0  0  0  0
   17.8232    7.9022   -8.7996 C   0  0  0  0  0  0  0  0  0  0  0  0
   16.6481   12.6071  -12.6380 C   0  0  0  0  0  0  0  0  0  0  0  0
   16.3286   12.9244  -13.9338 C   0  0  0  0  0  0  0  0  0  0  0  0
   15.7642   13.2525  -11.8308 C   0  0  0  0  0  0  0  0  0  0  0  0
   14.6022   14.3282  -15.0163 C   0  0  0  0  0  0  0  0  0  0  0  0
   20.3434   14.2605  -11.0867 C   0  0  0  0  0  0  0  0  0  0  0  0
   20.7457   14.7627  -12.2882 C   0  0  0  0  0  0  0  0  0  0  0  0
   20.0521   15.7854  -12.8862 C   0  0  0  0  0  0  0  0  0  0  0  0
   18.9445   16.2979  -12.2579 C   0  0  0  0  0  0  0  0  0  0  0  0
   18.5233   15.8131  -11.0589 C   0  0  0  0  0  0  0  0  0  0  0  0
   19.2168   14.7925  -10.4632 C   0  0  0  0  0  0  0  0  0  0  0  0
   19.7615    9.0417   -9.8890 N   0  0  0  0  0  0  0  0  0  0  0  0
   21.3763    7.7026   -9.4019 N   0  0  0  0  0  0  0  0  0  0  0  0
   20.2733    7.2044   -8.9071 N   0  0  0  0  0  0  0  0  0  0  0  0
   15.2668   13.7471  -13.8583 N   0  0  0  0  0  0  0  0  0  0  0  0
   14.9214   13.9503  -12.6149 N   0  0  0  0  0  0  0  0  0  0  0  0
   21.0209   13.2143  -10.4159 N   0  0  0  0  0  0  0  0  0  0  0  0
   18.0440   17.6033  -13.0021 Cl  0  0  0  0  0  0  0  0  0  0  0  0
  1  2  1  1
  6  1  1  0
  3  2  1  1
  2 13  1  0
  4  3  1  0
  4  5  2  0
  7  4  1  0
  6  5  1  6
  5 23  1  0
  7  8  1  0
  7 28  1  6
  8  9  1  6
  9 10  1  6
 10 23  1  0
 10 24  2  0
 12 11  1  6
 23 11  1  0
 11 25  2  0
 13 14  2  0
 13 15  1  0
 14 26  1  0
 15 27  2  0
 16 26  1  6
 17 18  2  0
 17 22  1  0
 17 28  1  0
 18 19  1  0
 19 20  2  0
 20 21  1  0
 20 29  1  0
 21 22  2  0
 24 25  1  0
 26 27  1  0
M  END
$$$$
