
     RDKit          3D

 29 33  0  0  0  0  0  0  0  0999 V2000
   17.2770   11.2676   -9.3715 C   0  0  0  0  0  0  0  0  0  0  0  0
   17.4463   12.1372  -10.5762 C   0  0  0  0  0  0  0  0  0  0  0  0
   18.1961   11.4950  -11.7299 C   0  0  0  0  0  0  0  0  0  0  0  0
   19.4401   10.8809  -11.2309 C   0  0  0  0  0  0  0  0  0  0  0  0
   19.3124   10.0856  -10.1344 C   0  0  0  0  0  0  0  0  0  0  0  0
   17.9928    9.9349   -9.6123 C   0  0  0  0  0  0  0  0  0  0  0  0
   20.6428   11.1857  -12.0552 C   0  0  1  0  0  0  0  0  0  0  0  0
   21.3608    9.8119  -12.2326 C   0  0  0  0  0  0  0  0  0  0  0  0
   22.3333    9.5805  -11.1466 C   0  0  0  0  0  0  0  0  0  0  0  0
   21.6600    9.2086   -9.8911 C   0  0  0  0  0  0  0  0  0  0  0  0
   20.2113    8.9558   -8.2291 C   0  0  0  0  0  0  0  0  0  0  0  0
   19.0269    9.0106   -7.3864 C   0  0  0  0  0  0  0  0  0  0  0  0
   18.0707   13.4132  -10.1974 C   0  0  0  0  0  0  0  0  0  0  0  0
   18.3463   14.4530  -11.0475 C   0  0  0  0  0  0  0  0  0  0  0  0
   18.4860   13.7955   -8.9502 C   0  0  0  0  0  0  0  0  0  0  0  0
   19.3596   16.7218  -10.8552 C   0  0  0  0  0  0  0  0  0  0  0  0
   20.3500   12.8157  -13.9426 C   0  0  0  0  0  0  0  0  0  0  0  0
   19.3026   13.4518  -14.5757 C   0  0  0  0  0  0  0  0  0  0  0  0
   19.4462   14.7499  -15.0616 C   0  0  0  0  0  0  0  0  0  0  0  0
   20.6304   15.4441  -14.9303 C   0  0  0  0  0  0  0  0  0  0  0  0
   21.6731   14.8035  -14.2971 C   0  0  0  0  0  0  0  0  0  0  0  0
   21.5283   13.5207  -13.8179 C   0  0  0  0  0  0  0  0  0  0  0  0
   20.3889    9.4375   -9.4602 N   0  0  0  0  0  0  0  0  0  0  0  0
   22.2731    8.5554   -8.8711 N   0  0  0  0  0  0  0  0  0  0  0  0
   21.4287    8.4068   -7.8995 N   0  0  0  0  0  0  0  0  0  0  0  0
   18.9117   15.4391  -10.3430 N   0  0  0  0  0  0  0  0  0  0  0  0
   18.9989   15.0507   -9.0808 N   0  0  0  0  0  0  0  0  0  0  0  0
   20.2267   11.4743  -13.4271 N   0  0  0  0  0  0  0  0  0  0  0  0
   20.7932   17.0845  -15.5509 Cl  0  0  0  0  0  0  0  0  0  0  0  0
  2  1  1  0
  6  1  1  0
  3  2  1  0
  2 13  1  0
  4  3  1  0
  4  5  2  0
  7  4  1  0
  5  6  1  0
  5 23  1  0
  7  8  1  0
  7 28  1  6
  8  9  1  0
  9 10  1  0
 10 23  1  0
 10 24  2  0
 11 12  1  0
 23 11  1  0
 11 25  2  0
 13 14  2  0
 13 15  1  0
 14 26  1  0
 15 27  2  0
 26 16  1  0
 17 18  2  0
 17 22  1  0
 17 28  1  0
 18 19  1  0
 19 20  2  0
 20 21  1  0
 20 29  1  0
 21 22  2  0
 24 25  1  0
 26 27  1  0
M  END
$$$$
