
     RDKit          3D

 29 33  0  0  0  0  0  0  0  0999 V2000
   16.7672    9.5121  -10.3698 C   0  0  0  0  0  0  0  0  0  0  0  0
   16.8715   10.5867  -11.3662 C   0  0  0  0  0  0  0  0  0  0  0  0
   17.8317   11.7085  -11.0127 C   0  0  0  0  0  0  0  0  0  0  0  0
   19.0939   11.0563  -10.7645 C   0  0  0  0  0  0  0  0  0  0  0  0
   19.0471   10.0291   -9.8680 C   0  0  0  0  0  0  0  0  0  0  0  0
   17.8195    9.6025   -9.2175 C   0  0  0  0  0  0  0  0  0  0  0  0
   20.3128   11.4471  -11.4944 C   0  0  1  0  0  0  0  0  0  0  0  0
   20.7544   10.1675  -12.2030 C   0  0  0  0  0  0  0  0  0  0  0  0
   21.7469    9.3620  -11.4430 C   0  0  0  0  0  0  0  0  0  0  0  0
   21.3214    8.9782  -10.0741 C   0  0  0  0  0  0  0  0  0  0  0  0
   20.2094    8.7662   -8.1557 C   0  0  0  0  0  0  0  0  0  0  0  0
   19.1957    8.9243   -7.1242 C   0  0  0  0  0  0  0  0  0  0  0  0
   15.5258   11.2223  -11.5402 C   0  0  0  0  0  0  0  0  0  0  0  0
   15.2830   12.4144  -12.1739 C   0  0  0  0  0  0  0  0  0  0  0  0
   14.3301   10.7399  -11.1078 C   0  0  0  0  0  0  0  0  0  0  0  0
   13.2636   13.7625  -12.6511 C   0  0  0  0  0  0  0  0  0  0  0  0
   21.1061   13.1851  -13.2060 C   0  0  0  0  0  0  0  0  0  0  0  0
   22.3092   13.7194  -12.8530 C   0  0  0  0  0  0  0  0  0  0  0  0
   23.1252   14.2903  -13.7979 C   0  0  0  0  0  0  0  0  0  0  0  0
   22.7139   14.3164  -15.1073 C   0  0  0  0  0  0  0  0  0  0  0  0
   21.5180   13.7893  -15.4841 C   0  0  0  0  0  0  0  0  0  0  0  0
   20.7046   13.2201  -14.5397 C   0  0  0  0  0  0  0  0  0  0  0  0
   20.1726    9.2802   -9.3960 N   0  0  0  0  0  0  0  0  0  0  0  0
   22.0612    8.2608   -9.2162 N   0  0  0  0  0  0  0  0  0  0  0  0
   21.4196    8.1283   -8.0845 N   0  0  0  0  0  0  0  0  0  0  0  0
   13.9533   12.6047  -12.0995 N   0  0  0  0  0  0  0  0  0  0  0  0
   13.3753   11.6174  -11.4687 N   0  0  0  0  0  0  0  0  0  0  0  0
   20.2171   12.5917  -12.2780 N   0  0  0  0  0  0  0  0  0  0  0  0
   23.7386   15.0399  -16.3301 Cl  0  0  0  0  0  0  0  0  0  0  0  0
  1  2  1  1
  6  1  1  0
  3  2  1  1
  2 13  1  0
  4  3  1  0
  4  5  2  0
  7  4  1  0
  6  5  1  6
  5 23  1  0
  7  8  1  0
  7 28  1  6
  8  9  1  6
  9 10  1  6
 10 23  1  0
 10 24  2  0
 12 11  1  6
 23 11  1  0
 11 25  2  0
 13 14  2  0
 13 15  1  0
 14 26  1  0
 15 27  2  0
 16 26  1  6
 17 18  2  0
 17 22  1  0
 17 28  1  0
 18 19  1  0
 19 20  2  0
 20 21  1  0
 20 29  1  0
 21 22  2  0
 24 25  1  0
 26 27  1  0
M  END
$$$$
