
     RDKit          3D

 29 33  0  0  0  0  0  0  0  0999 V2000
   16.6019    8.8785  -11.4353 C   0  0  0  0  0  0  0  0  0  0  0  0
   16.5909   10.2227  -12.0905 C   0  0  0  0  0  0  0  0  0  0  0  0
   17.9597   10.7679  -12.4578 C   0  0  0  0  0  0  0  0  0  0  0  0
   18.8655   10.6517  -11.3004 C   0  0  0  0  0  0  0  0  0  0  0  0
   18.8928    9.4381  -10.6861 C   0  0  0  0  0  0  0  0  0  0  0  0
   18.0533    8.4276  -11.2438 C   0  0  0  0  0  0  0  0  0  0  0  0
   19.6610   11.8804  -11.0241 C   0  0  1  0  0  0  0  0  0  0  0  0
   21.1156   11.3671  -10.7899 C   0  0  0  0  0  0  0  0  0  0  0  0
   21.3451   11.0637   -9.3638 C   0  0  0  0  0  0  0  0  0  0  0  0
   20.7015    9.7986   -8.9721 C   0  0  0  0  0  0  0  0  0  0  0  0
   19.3727    8.0281   -8.8162 C   0  0  0  0  0  0  0  0  0  0  0  0
   18.3215    7.0458   -9.0309 C   0  0  0  0  0  0  0  0  0  0  0  0
   15.8542   11.1863  -11.2598 C   0  0  0  0  0  0  0  0  0  0  0  0
   16.2272   12.4830  -11.0163 C   0  0  0  0  0  0  0  0  0  0  0  0
   14.6810   10.9746  -10.5867 C   0  0  0  0  0  0  0  0  0  0  0  0
   15.3215   14.4087   -9.7193 C   0  0  0  0  0  0  0  0  0  0  0  0
   19.6561   14.0750  -12.2444 C   0  0  0  0  0  0  0  0  0  0  0  0
   20.4119   14.9037  -13.0470 C   0  0  0  0  0  0  0  0  0  0  0  0
   20.2330   16.2853  -13.0133 C   0  0  0  0  0  0  0  0  0  0  0  0
   19.3020   16.8738  -12.1836 C   0  0  0  0  0  0  0  0  0  0  0  0
   18.5501   16.0408  -11.3841 C   0  0  0  0  0  0  0  0  0  0  0  0
   18.7290   14.6758  -11.4195 C   0  0  0  0  0  0  0  0  0  0  0  0
   19.6557    9.1232   -9.5233 N   0  0  0  0  0  0  0  0  0  0  0  0
   21.0653    9.0723   -7.8845 N   0  0  0  0  0  0  0  0  0  0  0  0
   20.2904    8.0379   -7.7917 N   0  0  0  0  0  0  0  0  0  0  0  0
   15.3119   13.0459  -10.2203 N   0  0  0  0  0  0  0  0  0  0  0  0
   14.3790   12.1447   -9.9577 N   0  0  0  0  0  0  0  0  0  0  0  0
   19.8184   12.6418  -12.2626 N   0  0  0  0  0  0  0  0  0  0  0  0
   19.0901   18.6221  -12.1548 Cl  0  0  0  0  0  0  0  0  0  0  0  0
  2  1  1  0
  6  1  1  0
  3  2  1  0
  2 13  1  0
  4  3  1  0
  4  5  2  0
  7  4  1  0
  5  6  1  0
  5 23  1  0
  7  8  1  0
  7 28  1  6
  8  9  1  0
  9 10  1  0
 10 23  1  0
 10 24  2  0
 11 12  1  0
 23 11  1  0
 11 25  2  0
 13 14  2  0
 13 15  1  0
 14 26  1  0
 15 27  2  0
 26 16  1  0
 17 18  2  0
 17 22  1  0
 17 28  1  0
 18 19  1  0
 19 20  2  0
 20 21  1  0
 20 29  1  0
 21 22  2  0
 24 25  1  0
 26 27  1  0
M  END
$$$$
