
     RDKit          3D

 29 33  0  0  0  0  0  0  0  0999 V2000
   16.7514   10.5348  -11.5609 C   0  0  0  0  0  0  0  0  0  0  0  0
   17.3133   11.5049  -12.5104 C   0  0  0  0  0  0  0  0  0  0  0  0
   18.3693   12.4348  -11.9398 C   0  0  0  0  0  0  0  0  0  0  0  0
   19.3714   11.5627  -11.3778 C   0  0  0  0  0  0  0  0  0  0  0  0
   18.8980   10.6216  -10.5111 C   0  0  0  0  0  0  0  0  0  0  0  0
   17.4886   10.4860  -10.1833 C   0  0  0  0  0  0  0  0  0  0  0  0
   20.7843   11.6602  -11.7843 C   0  0  1  0  0  0  0  0  0  0  0  0
   21.1107   10.2779  -12.3473 C   0  0  0  0  0  0  0  0  0  0  0  0
   21.7015    9.3403  -11.3556 C   0  0  0  0  0  0  0  0  0  0  0  0
   20.8874    9.1323  -10.1325 C   0  0  0  0  0  0  0  0  0  0  0  0
   19.3247    9.2611   -8.5502 C   0  0  0  0  0  0  0  0  0  0  0  0
   18.1464    9.6787   -7.8060 C   0  0  0  0  0  0  0  0  0  0  0  0
   16.2107   12.3816  -13.0212 C   0  0  0  0  0  0  0  0  0  0  0  0
   15.1590   11.9684  -13.7990 C   0  0  0  0  0  0  0  0  0  0  0  0
   16.0608   13.7165  -12.8092 C   0  0  0  0  0  0  0  0  0  0  0  0
   13.1955   13.0770  -14.8183 C   0  0  0  0  0  0  0  0  0  0  0  0
   22.3420   13.4323  -12.7908 C   0  0  0  0  0  0  0  0  0  0  0  0
   23.1277   13.8927  -11.7767 C   0  0  0  0  0  0  0  0  0  0  0  0
   24.2997   14.5551  -12.0457 C   0  0  0  0  0  0  0  0  0  0  0  0
   24.6725   14.7486  -13.3525 C   0  0  0  0  0  0  0  0  0  0  0  0
   23.9055   14.2981  -14.3814 C   0  0  0  0  0  0  0  0  0  0  0  0
   22.7359   13.6374  -14.1114 C   0  0  0  0  0  0  0  0  0  0  0  0
   19.6963    9.6957   -9.7656 N   0  0  0  0  0  0  0  0  0  0  0  0
   21.2329    8.3367   -9.1098 N   0  0  0  0  0  0  0  0  0  0  0  0
   20.3232    8.4027   -8.1729 N   0  0  0  0  0  0  0  0  0  0  0  0
   14.4171   13.0675  -14.0258 N   0  0  0  0  0  0  0  0  0  0  0  0
   14.9416   14.1128  -13.4435 N   0  0  0  0  0  0  0  0  0  0  0  0
   21.1194   12.7512  -12.5785 N   0  0  0  0  0  0  0  0  0  0  0  0
   26.1638   15.5915  -13.7195 Cl  0  0  0  0  0  0  0  0  0  0  0  0
  1  2  1  1
  6  1  1  0
  3  2  1  1
  2 13  1  0
  4  3  1  0
  4  5  2  0
  7  4  1  0
  6  5  1  6
  5 23  1  0
  7  8  1  0
  7 28  1  6
  8  9  1  6
  9 10  1  6
 10 23  1  0
 10 24  2  0
 12 11  1  6
 23 11  1  0
 11 25  2  0
 13 14  2  0
 13 15  1  0
 14 26  1  0
 15 27  2  0
 16 26  1  6
 17 18  2  0
 17 22  1  0
 17 28  1  0
 18 19  1  0
 19 20  2  0
 20 21  1  0
 20 29  1  0
 21 22  2  0
 24 25  1  0
 26 27  1  0
M  END
$$$$
