
     RDKit          3D

 29 33  0  0  0  0  0  0  0  0999 V2000
   16.6764    9.2200  -10.7288 C   0  0  0  0  0  0  0  0  0  0  0  0
   16.9076   10.3476  -11.6418 C   0  0  0  0  0  0  0  0  0  0  0  0
   17.7950   11.4525  -11.0969 C   0  0  0  0  0  0  0  0  0  0  0  0
   19.0172   10.7929  -10.7076 C   0  0  0  0  0  0  0  0  0  0  0  0
   18.8565    9.7184   -9.8827 C   0  0  0  0  0  0  0  0  0  0  0  0
   17.5545    9.2520   -9.4359 C   0  0  0  0  0  0  0  0  0  0  0  0
   20.3221   11.2278  -11.2359 C   0  0  1  0  0  0  0  0  0  0  0  0
   20.8742    9.9905  -11.9419 C   0  0  0  0  0  0  0  0  0  0  0  0
   21.7591    9.1489  -11.0931 C   0  0  0  0  0  0  0  0  0  0  0  0
   21.1493    8.6897   -9.8206 C   0  0  0  0  0  0  0  0  0  0  0  0
   19.7804    8.3692   -8.0927 C   0  0  0  0  0  0  0  0  0  0  0  0
   18.6296    8.4669   -7.2081 C   0  0  0  0  0  0  0  0  0  0  0  0
   15.5924   10.9861  -11.9703 C   0  0  0  0  0  0  0  0  0  0  0  0
   14.3587   10.4241  -11.7604 C   0  0  0  0  0  0  0  0  0  0  0  0
   15.3928   12.2116  -12.5252 C   0  0  0  0  0  0  0  0  0  0  0  0
   12.0221   11.1345  -12.1589 C   0  0  0  0  0  0  0  0  0  0  0  0
   20.0141   13.7472  -11.6069 C   0  0  0  0  0  0  0  0  0  0  0  0
   19.6345   14.1172  -10.3513 C   0  0  0  0  0  0  0  0  0  0  0  0
   19.3369   15.4272  -10.0682 C   0  0  0  0  0  0  0  0  0  0  0  0
   19.4268   16.3634  -11.0681 C   0  0  0  0  0  0  0  0  0  0  0  0
   19.8037   16.0186  -12.3287 C   0  0  0  0  0  0  0  0  0  0  0  0
   20.1002   14.7107  -12.6097 C   0  0  0  0  0  0  0  0  0  0  0  0
   19.9129    8.9497   -9.2966 N   0  0  0  0  0  0  0  0  0  0  0  0
   21.7691    7.9298   -8.9059 N   0  0  0  0  0  0  0  0  0  0  0  0
   20.9758    7.7334   -7.8851 N   0  0  0  0  0  0  0  0  0  0  0  0
   13.4647   11.3302  -12.1958 N   0  0  0  0  0  0  0  0  0  0  0  0
   14.0655   12.3965  -12.6526 N   0  0  0  0  0  0  0  0  0  0  0  0
   20.3245   12.4129  -11.9632 N   0  0  0  0  0  0  0  0  0  0  0  0
   19.0515   18.0408  -10.7300 Cl  0  0  0  0  0  0  0  0  0  0  0  0
  1  2  1  1
  6  1  1  0
  3  2  1  1
  2 13  1  0
  4  3  1  0
  4  5  2  0
  7  4  1  0
  6  5  1  6
  5 23  1  0
  7  8  1  0
  7 28  1  6
  8  9  1  6
  9 10  1  6
 10 23  1  0
 10 24  2  0
 12 11  1  6
 23 11  1  0
 11 25  2  0
 13 14  2  0
 13 15  1  0
 14 26  1  0
 15 27  2  0
 16 26  1  6
 17 18  2  0
 17 22  1  0
 17 28  1  0
 18 19  1  0
 19 20  2  0
 20 21  1  0
 20 29  1  0
 21 22  2  0
 24 25  1  0
 26 27  1  0
M  END
$$$$
