
     RDKit          3D

 29 33  0  0  0  0  0  0  0  0999 V2000
   16.5021    9.6677  -10.6782 C   0  0  0  0  0  0  0  0  0  0  0  0
   16.6789   10.9144  -11.4848 C   0  0  0  0  0  0  0  0  0  0  0  0
   18.0424   11.0690  -12.1350 C   0  0  0  0  0  0  0  0  0  0  0  0
   19.0980   10.8246  -11.1352 C   0  0  0  0  0  0  0  0  0  0  0  0
   18.9591    9.6965  -10.3875 C   0  0  0  0  0  0  0  0  0  0  0  0
   17.8193    8.8858  -10.6710 C   0  0  0  0  0  0  0  0  0  0  0  0
   20.1933   11.8341  -11.1470 C   0  0  1  0  0  0  0  0  0  0  0  0
   21.5073   10.9947  -11.0909 C   0  0  0  0  0  0  0  0  0  0  0  0
   21.9246   10.7602   -9.6947 C   0  0  0  0  0  0  0  0  0  0  0  0
   21.0915    9.7318   -9.0492 C   0  0  0  0  0  0  0  0  0  0  0  0
   19.4432    8.3677   -8.4601 C   0  0  0  0  0  0  0  0  0  0  0  0
   18.1724    7.6648   -8.3769 C   0  0  0  0  0  0  0  0  0  0  0  0
   16.3547   12.0954  -10.6715 C   0  0  0  0  0  0  0  0  0  0  0  0
   17.1470   13.2039  -10.5182 C   0  0  0  0  0  0  0  0  0  0  0  0
   15.2239   12.3065   -9.9292 C   0  0  0  0  0  0  0  0  0  0  0  0
   17.0093   15.3645   -9.2838 C   0  0  0  0  0  0  0  0  0  0  0  0
   20.1637   13.8581  -12.6328 C   0  0  0  0  0  0  0  0  0  0  0  0
   18.9367   14.4879  -12.6324 C   0  0  0  0  0  0  0  0  0  0  0  0
   18.8454   15.8708  -12.7784 C   0  0  0  0  0  0  0  0  0  0  0  0
   19.9679   16.6576  -12.9279 C   0  0  0  0  0  0  0  0  0  0  0  0
   21.1908   16.0228  -12.9277 C   0  0  0  0  0  0  0  0  0  0  0  0
   21.2780   14.6561  -12.7831 C   0  0  0  0  0  0  0  0  0  0  0  0
   19.8334    9.2964   -9.3344 N   0  0  0  0  0  0  0  0  0  0  0  0
   21.4756    9.0283   -7.9536 N   0  0  0  0  0  0  0  0  0  0  0  0
   20.5143    8.2311   -7.6080 N   0  0  0  0  0  0  0  0  0  0  0  0
   16.5210   14.0647   -9.7087 N   0  0  0  0  0  0  0  0  0  0  0  0
   15.3638   13.5317   -9.3505 N   0  0  0  0  0  0  0  0  0  0  0  0
   20.2864   12.4292  -12.4796 N   0  0  0  0  0  0  0  0  0  0  0  0
   19.8328   18.4042  -13.1112 Cl  0  0  0  0  0  0  0  0  0  0  0  0
  2  1  1  0
  6  1  1  0
  3  2  1  0
  2 13  1  0
  4  3  1  0
  4  5  2  0
  7  4  1  0
  5  6  1  0
  5 23  1  0
  7  8  1  0
  7 28  1  6
  8  9  1  0
  9 10  1  0
 10 23  1  0
 10 24  2  0
 11 12  1  0
 23 11  1  0
 11 25  2  0
 13 14  2  0
 13 15  1  0
 14 26  1  0
 15 27  2  0
 26 16  1  0
 17 18  2  0
 17 22  1  0
 17 28  1  0
 18 19  1  0
 19 20  2  0
 20 21  1  0
 20 29  1  0
 21 22  2  0
 24 25  1  0
 26 27  1  0
M  END
$$$$
