
     RDKit          3D

 29 33  0  0  0  0  0  0  0  0999 V2000
   16.6072   10.2773  -10.2222 C   0  0  0  0  0  0  0  0  0  0  0  0
   16.8597   11.3848  -11.1947 C   0  0  0  0  0  0  0  0  0  0  0  0
   17.9962   11.1345  -12.1702 C   0  0  0  0  0  0  0  0  0  0  0  0
   19.1878   10.6744  -11.4340 C   0  0  0  0  0  0  0  0  0  0  0  0
   18.9838    9.6677  -10.5420 C   0  0  0  0  0  0  0  0  0  0  0  0
   17.6485    9.1748  -10.4386 C   0  0  0  0  0  0  0  0  0  0  0  0
   20.4513   11.3539  -11.8353 C   0  0  1  0  0  0  0  0  0  0  0  0
   21.4886   10.1997  -11.9967 C   0  0  0  0  0  0  0  0  0  0  0  0
   22.1927    9.9412  -10.7255 C   0  0  0  0  0  0  0  0  0  0  0  0
   21.3380    9.2094   -9.7757 C   0  0  0  0  0  0  0  0  0  0  0  0
   19.6263    8.3681   -8.6412 C   0  0  0  0  0  0  0  0  0  0  0  0
   18.2924    8.0344   -8.1664 C   0  0  0  0  0  0  0  0  0  0  0  0
   17.0600   12.6532  -10.4788 C   0  0  0  0  0  0  0  0  0  0  0  0
   17.7552   13.7371  -10.9497 C   0  0  0  0  0  0  0  0  0  0  0  0
   16.5995   12.9841   -9.2327 C   0  0  0  0  0  0  0  0  0  0  0  0
   18.3322   16.0132  -10.1145 C   0  0  0  0  0  0  0  0  0  0  0  0
   20.2811   13.2440  -13.4796 C   0  0  0  0  0  0  0  0  0  0  0  0
   19.5954   13.7600  -14.5592 C   0  0  0  0  0  0  0  0  0  0  0  0
   19.5625   15.1336  -14.7922 C   0  0  0  0  0  0  0  0  0  0  0  0
   20.2085   16.0236  -13.9603 C   0  0  0  0  0  0  0  0  0  0  0  0
   20.8919   15.5022  -12.8835 C   0  0  0  0  0  0  0  0  0  0  0  0
   20.9227   14.1444  -12.6557 C   0  0  0  0  0  0  0  0  0  0  0  0
   19.9828    9.1091   -9.6915 N   0  0  0  0  0  0  0  0  0  0  0  0
   21.8173    8.4915   -8.7280 N   0  0  0  0  0  0  0  0  0  0  0  0
   20.8192    7.9994   -8.0642 N   0  0  0  0  0  0  0  0  0  0  0  0
   17.7209   14.6994  -10.0217 N   0  0  0  0  0  0  0  0  0  0  0  0
   17.0276   14.2536   -8.9863 N   0  0  0  0  0  0  0  0  0  0  0  0
   20.3278   11.8272  -13.2134 N   0  0  0  0  0  0  0  0  0  0  0  0
   20.1557   17.7566  -14.2708 Cl  0  0  0  0  0  0  0  0  0  0  0  0
  2  1  1  0
  6  1  1  0
  3  2  1  0
  2 13  1  0
  4  3  1  0
  4  5  2  0
  7  4  1  0
  5  6  1  0
  5 23  1  0
  7  8  1  0
  7 28  1  6
  8  9  1  0
  9 10  1  0
 10 23  1  0
 10 24  2  0
 11 12  1  0
 23 11  1  0
 11 25  2  0
 13 14  2  0
 13 15  1  0
 14 26  1  0
 15 27  2  0
 26 16  1  0
 17 18  2  0
 17 22  1  0
 17 28  1  0
 18 19  1  0
 19 20  2  0
 20 21  1  0
 20 29  1  0
 21 22  2  0
 24 25  1  0
 26 27  1  0
M  END
$$$$
