
     RDKit          3D

 29 33  0  0  0  0  0  0  0  0999 V2000
   18.0203    9.5347  -12.9928 C   0  0  0  0  0  0  0  0  0  0  0  0
   18.4244   10.7978  -13.6250 C   0  0  0  0  0  0  0  0  0  0  0  0
   18.3696   12.0202  -12.7260 C   0  0  0  0  0  0  0  0  0  0  0  0
   19.1864   11.6830  -11.5861 C   0  0  0  0  0  0  0  0  0  0  0  0
   18.8723   10.5024  -10.9792 C   0  0  0  0  0  0  0  0  0  0  0  0
   17.8073    9.6312  -11.4473 C   0  0  0  0  0  0  0  0  0  0  0  0
   20.3151   12.5365  -11.1753 C   0  0  1  0  0  0  0  0  0  0  0  0
   21.5316   11.6155  -11.2526 C   0  0  0  0  0  0  0  0  0  0  0  0
   21.8716   10.9465   -9.9686 C   0  0  0  0  0  0  0  0  0  0  0  0
   20.7675   10.1613   -9.3633 C   0  0  0  0  0  0  0  0  0  0  0  0
   18.7936    9.2309   -8.9163 C   0  0  0  0  0  0  0  0  0  0  0  0
   17.3850    8.8766   -9.0002 C   0  0  0  0  0  0  0  0  0  0  0  0
   17.5095   11.0804  -14.7776 C   0  0  0  0  0  0  0  0  0  0  0  0
   16.1543   11.2750  -14.6906 C   0  0  0  0  0  0  0  0  0  0  0  0
   17.8536   11.1905  -16.0886 C   0  0  0  0  0  0  0  0  0  0  0  0
   14.3473   11.7478  -16.3137 C   0  0  0  0  0  0  0  0  0  0  0  0
   20.3847   15.0953  -11.3405 C   0  0  0  0  0  0  0  0  0  0  0  0
   21.1515   16.0973  -11.8559 C   0  0  0  0  0  0  0  0  0  0  0  0
   21.0789   17.3684  -11.3422 C   0  0  0  0  0  0  0  0  0  0  0  0
   20.2217   17.6193  -10.2999 C   0  0  0  0  0  0  0  0  0  0  0  0
   19.4462   16.6360   -9.7690 C   0  0  0  0  0  0  0  0  0  0  0  0
   19.5200   15.3679  -10.2826 C   0  0  0  0  0  0  0  0  0  0  0  0
   19.4793    9.9875   -9.7888 N   0  0  0  0  0  0  0  0  0  0  0  0
   20.8531    9.4862   -8.2078 N   0  0  0  0  0  0  0  0  0  0  0  0
   19.7000    8.9342   -7.9332 N   0  0  0  0  0  0  0  0  0  0  0  0
   15.7344   11.4944  -15.9497 N   0  0  0  0  0  0  0  0  0  0  0  0
   16.7336   11.4470  -16.7900 N   0  0  0  0  0  0  0  0  0  0  0  0
   20.4212   13.7640  -11.8198 N   0  0  0  0  0  0  0  0  0  0  0  0
   20.1126   19.2335   -9.6282 Cl  0  0  0  0  0  0  0  0  0  0  0  0
  1  2  1  1
  6  1  1  0
  3  2  1  1
  2 13  1  0
  4  3  1  0
  4  5  2  0
  7  4  1  0
  6  5  1  6
  5 23  1  0
  7  8  1  0
  7 28  1  6
  8  9  1  6
  9 10  1  6
 10 23  1  0
 10 24  2  0
 12 11  1  6
 23 11  1  0
 11 25  2  0
 13 14  2  0
 13 15  1  0
 14 26  1  0
 15 27  2  0
 16 26  1  6
 17 18  2  0
 17 22  1  0
 17 28  1  0
 18 19  1  0
 19 20  2  0
 20 21  1  0
 20 29  1  0
 21 22  2  0
 24 25  1  0
 26 27  1  0
M  END
$$$$
