
     RDKit          3D

 29 33  0  0  0  0  0  0  0  0999 V2000
   21.5075   12.2376  -11.8565 C   0  0  0  0  0  0  0  0  0  0  0  0
   20.1841   12.8576  -12.1734 C   0  0  0  0  0  0  0  0  0  0  0  0
   19.0890   12.5851  -11.1575 C   0  0  0  0  0  0  0  0  0  0  0  0
   19.0399   11.1424  -10.8576 C   0  0  0  0  0  0  0  0  0  0  0  0
   20.2320   10.5546  -10.5669 C   0  0  0  0  0  0  0  0  0  0  0  0
   21.3766   11.4069  -10.5761 C   0  0  0  0  0  0  0  0  0  0  0  0
   17.6663   10.5661  -10.8616 C   0  0  1  0  0  0  0  0  0  0  0  0
   17.5979    9.6945   -9.5694 C   0  0  0  0  0  0  0  0  0  0  0  0
   18.0311    8.3102   -9.8429 C   0  0  0  0  0  0  0  0  0  0  0  0
   19.4947    8.2206   -9.9770 C   0  0  0  0  0  0  0  0  0  0  0  0
   21.6428    8.6375  -10.3463 C   0  0  0  0  0  0  0  0  0  0  0  0
   22.9055    9.2785  -10.6791 C   0  0  0  0  0  0  0  0  0  0  0  0
   19.7500   12.4657  -13.5223 C   0  0  0  0  0  0  0  0  0  0  0  0
   20.3552   12.8331  -14.6964 C   0  0  0  0  0  0  0  0  0  0  0  0
   18.6815   11.6762  -13.8532 C   0  0  0  0  0  0  0  0  0  0  0  0
   19.9815   12.4215  -17.1258 C   0  0  0  0  0  0  0  0  0  0  0  0
   15.6007   11.8660  -11.4523 C   0  0  0  0  0  0  0  0  0  0  0  0
   14.3133   11.4707  -11.1550 C   0  0  0  0  0  0  0  0  0  0  0  0
   13.2676   11.7243  -12.0404 C   0  0  0  0  0  0  0  0  0  0  0  0
   13.4761   12.3747  -13.2383 C   0  0  0  0  0  0  0  0  0  0  0  0
   14.7643   12.7671  -13.5299 C   0  0  0  0  0  0  0  0  0  0  0  0
   15.7958   12.5151  -12.6530 C   0  0  0  0  0  0  0  0  0  0  0  0
   20.4194    9.1667  -10.2986 N   0  0  0  0  0  0  0  0  0  0  0  0
   20.1973    7.0696   -9.8210 N   0  0  0  0  0  0  0  0  0  0  0  0
   21.4521    7.3110  -10.0363 N   0  0  0  0  0  0  0  0  0  0  0  0
   19.6788   12.2862  -15.7121 N   0  0  0  0  0  0  0  0  0  0  0  0
   18.6709   11.5890  -15.2126 N   0  0  0  0  0  0  0  0  0  0  0  0
   16.7004   11.6195  -10.5520 N   0  0  0  0  0  0  0  0  0  0  0  0
   12.1417   12.6865  -14.3449 Cl  0  0  0  0  0  0  0  0  0  0  0  0
  2  1  1  0
  6  1  1  0
  3  2  1  0
  2 13  1  0
  4  3  1  0
  4  5  2  0
  7  4  1  0
  5  6  1  0
  5 23  1  0
  7  8  1  0
  7 28  1  1
  8  9  1  0
  9 10  1  0
 10 23  1  0
 10 24  2  0
 11 12  1  0
 23 11  1  0
 11 25  2  0
 13 14  2  0
 13 15  1  0
 14 26  1  0
 15 27  2  0
 26 16  1  0
 17 18  2  0
 17 22  1  0
 17 28  1  0
 18 19  1  0
 19 20  2  0
 20 21  1  0
 20 29  1  0
 21 22  2  0
 24 25  1  0
 26 27  1  0
M  END
$$$$
