
     RDKit          3D

 29 33  0  0  0  0  0  0  0  0999 V2000
   19.6319    9.0636  -13.3727 C   0  0  0  0  0  0  0  0  0  0  0  0
   19.5098   10.5215  -13.6820 C   0  0  0  0  0  0  0  0  0  0  0  0
   20.3039   11.4390  -12.7690 C   0  0  0  0  0  0  0  0  0  0  0  0
   20.0457   11.0816  -11.3622 C   0  0  0  0  0  0  0  0  0  0  0  0
   20.1496    9.7602  -11.0556 C   0  0  0  0  0  0  0  0  0  0  0  0
   20.5066    8.8881  -12.1274 C   0  0  0  0  0  0  0  0  0  0  0  0
   19.7687   12.2485  -10.4786 C   0  0  1  0  0  0  0  0  0  0  0  0
   20.6419   12.0014   -9.2095 C   0  0  0  0  0  0  0  0  0  0  0  0
   19.8944   11.2313   -8.1962 C   0  0  0  0  0  0  0  0  0  0  0  0
   19.8005    9.8083   -8.5626 C   0  0  0  0  0  0  0  0  0  0  0  0
   19.7057    7.8770   -9.6516 C   0  0  0  0  0  0  0  0  0  0  0  0
   19.6893    6.8549  -10.6865 C   0  0  0  0  0  0  0  0  0  0  0  0
   18.0942   10.9173  -13.7117 C   0  0  0  0  0  0  0  0  0  0  0  0
   17.6148   12.1487  -14.0772 C   0  0  0  0  0  0  0  0  0  0  0  0
   17.0104   10.1465  -13.3868 C   0  0  0  0  0  0  0  0  0  0  0  0
   15.3778   13.2299  -14.2718 C   0  0  0  0  0  0  0  0  0  0  0  0
   19.8157   14.7370  -10.8111 C   0  0  0  0  0  0  0  0  0  0  0  0
   20.4659   15.9030  -11.1572 C   0  0  0  0  0  0  0  0  0  0  0  0
   19.8739   17.1437  -10.9290 C   0  0  0  0  0  0  0  0  0  0  0  0
   18.6258   17.2543  -10.3532 C   0  0  0  0  0  0  0  0  0  0  0  0
   17.9813   16.0860  -10.0095 C   0  0  0  0  0  0  0  0  0  0  0  0
   18.5687   14.8613  -10.2362 C   0  0  0  0  0  0  0  0  0  0  0  0
   19.8927    9.1921   -9.7731 N   0  0  0  0  0  0  0  0  0  0  0  0
   19.5496    8.8150   -7.6719 N   0  0  0  0  0  0  0  0  0  0  0  0
   19.4938    7.6863   -8.3060 N   0  0  0  0  0  0  0  0  0  0  0  0
   16.2812   12.1316  -13.9789 N   0  0  0  0  0  0  0  0  0  0  0  0
   15.9106   10.9306  -13.5643 N   0  0  0  0  0  0  0  0  0  0  0  0
   20.4041   13.4401  -11.0398 N   0  0  0  0  0  0  0  0  0  0  0  0
   17.8935   18.8314  -10.0725 Cl  0  0  0  0  0  0  0  0  0  0  0  0
  2  1  1  0
  6  1  1  0
  3  2  1  0
  2 13  1  0
  4  3  1  0
  4  5  2  0
  7  4  1  0
  5  6  1  0
  5 23  1  0
  7  8  1  0
  7 28  1  6
  8  9  1  0
  9 10  1  0
 10 23  1  0
 10 24  2  0
 11 12  1  0
 23 11  1  0
 11 25  2  0
 13 14  2  0
 13 15  1  0
 14 26  1  0
 15 27  2  0
 26 16  1  0
 17 18  2  0
 17 22  1  0
 17 28  1  0
 18 19  1  0
 19 20  2  0
 20 21  1  0
 20 29  1  0
 21 22  2  0
 24 25  1  0
 26 27  1  0
M  END
$$$$
