
     RDKit          3D

 29 33  0  0  0  0  0  0  0  0999 V2000
   16.6130   10.7300   -9.9112 C   0  0  0  0  0  0  0  0  0  0  0  0
   16.9729   11.6981  -10.9925 C   0  0  0  0  0  0  0  0  0  0  0  0
   18.0632   11.2263  -11.9383 C   0  0  0  0  0  0  0  0  0  0  0  0
   19.2064   10.7156  -11.1600 C   0  0  0  0  0  0  0  0  0  0  0  0
   18.9047    9.8335  -10.1691 C   0  0  0  0  0  0  0  0  0  0  0  0
   17.5249    9.5035  -10.0142 C   0  0  0  0  0  0  0  0  0  0  0  0
   20.5315   11.2076  -11.6302 C   0  0  1  0  0  0  0  0  0  0  0  0
   21.4345    9.9360  -11.6733 C   0  0  0  0  0  0  0  0  0  0  0  0
   22.1218    9.7327  -10.3830 C   0  0  0  0  0  0  0  0  0  0  0  0
   21.2040    9.1999   -9.3622 C   0  0  0  0  0  0  0  0  0  0  0  0
   19.4248    8.6719   -8.1455 C   0  0  0  0  0  0  0  0  0  0  0  0
   18.0684    8.5370   -7.6376 C   0  0  0  0  0  0  0  0  0  0  0  0
   17.3193   13.0032  -10.4109 C   0  0  0  0  0  0  0  0  0  0  0  0
   16.4283   13.9811  -10.0509 C   0  0  0  0  0  0  0  0  0  0  0  0
   18.5712   13.4779  -10.1249 C   0  0  0  0  0  0  0  0  0  0  0  0
   16.5570   16.2659   -9.0640 C   0  0  0  0  0  0  0  0  0  0  0  0
   20.5409   12.9282  -13.4591 C   0  0  0  0  0  0  0  0  0  0  0  0
   21.1181   13.8879  -12.6541 C   0  0  0  0  0  0  0  0  0  0  0  0
   21.2034   15.2136  -13.0748 C   0  0  0  0  0  0  0  0  0  0  0  0
   20.7185   15.6154  -14.3016 C   0  0  0  0  0  0  0  0  0  0  0  0
   20.1429   14.6523  -15.1013 C   0  0  0  0  0  0  0  0  0  0  0  0
   20.0600   13.3429  -14.6829 C   0  0  0  0  0  0  0  0  0  0  0  0
   19.8471    9.2582   -9.2667 N   0  0  0  0  0  0  0  0  0  0  0  0
   21.6150    8.5444   -8.2468 N   0  0  0  0  0  0  0  0  0  0  0  0
   20.5773    8.2351   -7.5349 N   0  0  0  0  0  0  0  0  0  0  0  0
   17.1130   15.0200   -9.5609 N   0  0  0  0  0  0  0  0  0  0  0  0
   18.4023   14.7245   -9.6023 N   0  0  0  0  0  0  0  0  0  0  0  0
   20.4435   11.5486  -13.0495 N   0  0  0  0  0  0  0  0  0  0  0  0
   20.8352   17.2958  -14.8163 Cl  0  0  0  0  0  0  0  0  0  0  0  0
  2  1  1  0
  6  1  1  0
  3  2  1  0
  2 13  1  0
  4  3  1  0
  4  5  2  0
  7  4  1  0
  5  6  1  0
  5 23  1  0
  7  8  1  0
  7 28  1  6
  8  9  1  0
  9 10  1  0
 10 23  1  0
 10 24  2  0
 11 12  1  0
 23 11  1  0
 11 25  2  0
 13 14  2  0
 13 15  1  0
 14 26  1  0
 15 27  2  0
 26 16  1  0
 17 18  2  0
 17 22  1  0
 17 28  1  0
 18 19  1  0
 19 20  2  0
 20 21  1  0
 20 29  1  0
 21 22  2  0
 24 25  1  0
 26 27  1  0
M  END
$$$$
