
     RDKit          3D

 29 33  0  0  0  0  0  0  0  0999 V2000
   16.9440    9.7898  -11.3827 C   0  0  0  0  0  0  0  0  0  0  0  0
   17.3417   11.1770  -11.6587 C   0  0  0  0  0  0  0  0  0  0  0  0
   18.0561   11.8857  -10.5217 C   0  0  0  0  0  0  0  0  0  0  0  0
   19.1787   11.0392  -10.1998 C   0  0  0  0  0  0  0  0  0  0  0  0
   18.8677    9.7321   -9.9640 C   0  0  0  0  0  0  0  0  0  0  0  0
   17.5121    9.2145  -10.0449 C   0  0  0  0  0  0  0  0  0  0  0  0
   20.5562   11.5623  -10.2035 C   0  0  1  0  0  0  0  0  0  0  0  0
   21.2842   10.6996  -11.2330 C   0  0  0  0  0  0  0  0  0  0  0  0
   21.9808    9.5195  -10.6555 C   0  0  0  0  0  0  0  0  0  0  0  0
   21.1164    8.6131   -9.8596 C   0  0  0  0  0  0  0  0  0  0  0  0
   19.4073    7.6949   -8.7651 C   0  0  0  0  0  0  0  0  0  0  0  0
   18.0866    7.4936   -8.1891 C   0  0  0  0  0  0  0  0  0  0  0  0
   16.1156   11.9855  -11.9557 C   0  0  0  0  0  0  0  0  0  0  0  0
   14.9854   12.0342  -11.1799 C   0  0  0  0  0  0  0  0  0  0  0  0
   15.9097   12.7976  -13.0270 C   0  0  0  0  0  0  0  0  0  0  0  0
   12.8127   13.2095  -11.3257 C   0  0  0  0  0  0  0  0  0  0  0  0
   20.0738   13.8715  -11.2108 C   0  0  0  0  0  0  0  0  0  0  0  0
   20.2438   13.8565  -12.5630 C   0  0  0  0  0  0  0  0  0  0  0  0
   19.6284   14.7934  -13.3556 C   0  0  0  0  0  0  0  0  0  0  0  0
   18.8366   15.7486  -12.7682 C   0  0  0  0  0  0  0  0  0  0  0  0
   18.6515   15.7838  -11.4212 C   0  0  0  0  0  0  0  0  0  0  0  0
   19.2665   14.8482  -10.6315 C   0  0  0  0  0  0  0  0  0  0  0  0
   19.7880    8.7160   -9.5503 N   0  0  0  0  0  0  0  0  0  0  0  0
   21.5378    7.4980   -9.2457 N   0  0  0  0  0  0  0  0  0  0  0  0
   20.5434    6.9481   -8.5987 N   0  0  0  0  0  0  0  0  0  0  0  0
   14.1432   12.8717  -11.8117 N   0  0  0  0  0  0  0  0  0  0  0  0
   14.6799   13.3322  -12.9102 N   0  0  0  0  0  0  0  0  0  0  0  0
   20.6881   12.9397  -10.3401 N   0  0  0  0  0  0  0  0  0  0  0  0
   18.0417   16.9542  -13.7598 Cl  0  0  0  0  0  0  0  0  0  0  0  0
  1  2  1  1
  6  1  1  0
  3  2  1  1
  2 13  1  0
  4  3  1  0
  4  5  2  0
  7  4  1  0
  6  5  1  6
  5 23  1  0
  7  8  1  0
  7 28  1  6
  8  9  1  6
  9 10  1  6
 10 23  1  0
 10 24  2  0
 12 11  1  6
 23 11  1  0
 11 25  2  0
 13 14  2  0
 13 15  1  0
 14 26  1  0
 15 27  2  0
 16 26  1  6
 17 18  2  0
 17 22  1  0
 17 28  1  0
 18 19  1  0
 19 20  2  0
 20 21  1  0
 20 29  1  0
 21 22  2  0
 24 25  1  0
 26 27  1  0
M  END
$$$$
