
     RDKit          3D

 29 33  0  0  0  0  0  0  0  0999 V2000
   16.9643   11.1450   -9.6401 C   0  0  0  0  0  0  0  0  0  0  0  0
   17.3171   12.0137  -10.8050 C   0  0  0  0  0  0  0  0  0  0  0  0
   18.2485   11.3763  -11.8209 C   0  0  0  0  0  0  0  0  0  0  0  0
   19.4016   10.7752  -11.1263 C   0  0  0  0  0  0  0  0  0  0  0  0
   19.1066    9.9810  -10.0618 C   0  0  0  0  0  0  0  0  0  0  0  0
   17.7217    9.8186   -9.7579 C   0  0  0  0  0  0  0  0  0  0  0  0
   20.7183   11.0897  -11.7477 C   0  0  1  0  0  0  0  0  0  0  0  0
   21.4680    9.7225  -11.8025 C   0  0  0  0  0  0  0  0  0  0  0  0
   22.2554    9.5027  -10.5735 C   0  0  0  0  0  0  0  0  0  0  0  0
   21.3924    9.1269   -9.4412 C   0  0  0  0  0  0  0  0  0  0  0  0
   19.6978    8.8637   -8.0327 C   0  0  0  0  0  0  0  0  0  0  0  0
   18.3928    8.9089   -7.3915 C   0  0  0  0  0  0  0  0  0  0  0  0
   17.8609   13.2963  -10.3354 C   0  0  0  0  0  0  0  0  0  0  0  0
   17.4285   13.9955   -9.2381 C   0  0  0  0  0  0  0  0  0  0  0  0
   18.8805   14.0193  -10.8939 C   0  0  0  0  0  0  0  0  0  0  0  0
   18.0318   16.1324   -8.1064 C   0  0  0  0  0  0  0  0  0  0  0  0
   20.8849   12.6657  -13.6955 C   0  0  0  0  0  0  0  0  0  0  0  0
   21.8557   13.4477  -13.1053 C   0  0  0  0  0  0  0  0  0  0  0  0
   22.1870   14.6931  -13.6353 C   0  0  0  0  0  0  0  0  0  0  0  0
   21.5633   15.1892  -14.7606 C   0  0  0  0  0  0  0  0  0  0  0  0
   20.5943   14.4035  -15.3457 C   0  0  0  0  0  0  0  0  0  0  0  0
   20.2689   13.1731  -14.8198 C   0  0  0  0  0  0  0  0  0  0  0  0
   20.0666    9.3446   -9.2210 N   0  0  0  0  0  0  0  0  0  0  0  0
   21.8395    8.4817   -8.3337 N   0  0  0  0  0  0  0  0  0  0  0  0
   20.8513    8.3270   -7.5099 N   0  0  0  0  0  0  0  0  0  0  0  0
   18.1599   15.1097   -9.1292 N   0  0  0  0  0  0  0  0  0  0  0  0
   19.0352   15.1308  -10.1216 N   0  0  0  0  0  0  0  0  0  0  0  0
   20.5256   11.3715  -13.1697 N   0  0  0  0  0  0  0  0  0  0  0  0
   21.9955   16.7658  -15.4161 Cl  0  0  0  0  0  0  0  0  0  0  0  0
  2  1  1  0
  6  1  1  0
  3  2  1  0
  2 13  1  0
  4  3  1  0
  4  5  2  0
  7  4  1  0
  5  6  1  0
  5 23  1  0
  7  8  1  0
  7 28  1  6
  8  9  1  0
  9 10  1  0
 10 23  1  0
 10 24  2  0
 11 12  1  0
 23 11  1  0
 11 25  2  0
 13 14  2  0
 13 15  1  0
 14 26  1  0
 15 27  2  0
 26 16  1  0
 17 18  2  0
 17 22  1  0
 17 28  1  0
 18 19  1  0
 19 20  2  0
 20 21  1  0
 20 29  1  0
 21 22  2  0
 24 25  1  0
 26 27  1  0
M  END
$$$$
