
     RDKit          3D

 29 33  0  0  0  0  0  0  0  0999 V2000
   17.3613   11.1151   -8.9765 C   0  0  0  0  0  0  0  0  0  0  0  0
   17.2688   11.9910  -10.1850 C   0  0  0  0  0  0  0  0  0  0  0  0
   17.7234   11.3442  -11.4815 C   0  0  0  0  0  0  0  0  0  0  0  0
   19.0360   10.7035  -11.2813 C   0  0  0  0  0  0  0  0  0  0  0  0
   19.1458    9.9021  -10.1874 C   0  0  0  0  0  0  0  0  0  0  0  0
   17.9772    9.7714   -9.3788 C   0  0  0  0  0  0  0  0  0  0  0  0
   20.0250   10.9926  -12.3570 C   0  0  1  0  0  0  0  0  0  0  0  0
   20.6566    9.6074  -12.6982 C   0  0  0  0  0  0  0  0  0  0  0  0
   21.8462    9.3496  -11.8633 C   0  0  0  0  0  0  0  0  0  0  0  0
   21.4694    8.9802  -10.4886 C   0  0  0  0  0  0  0  0  0  0  0  0
   20.4327    8.7409   -8.5411 C   0  0  0  0  0  0  0  0  0  0  0  0
   19.4727    8.8108   -7.4504 C   0  0  0  0  0  0  0  0  0  0  0  0
   17.9881   13.2522   -9.9541 C   0  0  0  0  0  0  0  0  0  0  0  0
   18.6721   13.9689  -10.9019 C   0  0  0  0  0  0  0  0  0  0  0  0
   18.1078   13.9347   -8.7733 C   0  0  0  0  0  0  0  0  0  0  0  0
   19.9915   16.0822  -10.9631 C   0  0  0  0  0  0  0  0  0  0  0  0
   19.5444   12.5602  -14.2589 C   0  0  0  0  0  0  0  0  0  0  0  0
   18.5803   13.1590  -15.0424 C   0  0  0  0  0  0  0  0  0  0  0  0
   18.8274   14.3793  -15.6683 C   0  0  0  0  0  0  0  0  0  0  0  0
   20.0349   15.0309  -15.5306 C   0  0  0  0  0  0  0  0  0  0  0  0
   20.9942   14.4278  -14.7468 C   0  0  0  0  0  0  0  0  0  0  0  0
   20.7471   13.2218  -14.1294 C   0  0  0  0  0  0  0  0  0  0  0  0
   20.3347    9.2290   -9.7786 N   0  0  0  0  0  0  0  0  0  0  0  0
   22.2857    8.3078   -9.6376 N   0  0  0  0  0  0  0  0  0  0  0  0
   21.6821    8.1671   -8.4996 N   0  0  0  0  0  0  0  0  0  0  0  0
   19.1931   15.0542  -10.3197 N   0  0  0  0  0  0  0  0  0  0  0  0
   18.8579   15.0402   -9.0395 N   0  0  0  0  0  0  0  0  0  0  0  0
   19.3132   11.2997  -13.5970 N   0  0  0  0  0  0  0  0  0  0  0  0
   20.3290   16.5730  -16.3294 Cl  0  0  0  0  0  0  0  0  0  0  0  0
  2  1  1  0
  6  1  1  0
  3  2  1  0
  2 13  1  0
  4  3  1  0
  4  5  2  0
  7  4  1  0
  5  6  1  0
  5 23  1  0
  7  8  1  0
  7 28  1  6
  8  9  1  0
  9 10  1  0
 10 23  1  0
 10 24  2  0
 11 12  1  0
 23 11  1  0
 11 25  2  0
 13 14  2  0
 13 15  1  0
 14 26  1  0
 15 27  2  0
 26 16  1  0
 17 18  2  0
 17 22  1  0
 17 28  1  0
 18 19  1  0
 19 20  2  0
 20 21  1  0
 20 29  1  0
 21 22  2  0
 24 25  1  0
 26 27  1  0
M  END
$$$$
