
     RDKit          3D

 29 33  0  0  0  0  0  0  0  0999 V2000
   16.5971    8.8705  -10.4277 C   0  0  0  0  0  0  0  0  0  0  0  0
   16.4843   10.0927  -11.2352 C   0  0  0  0  0  0  0  0  0  0  0  0
   17.1667   11.3189  -10.6555 C   0  0  0  0  0  0  0  0  0  0  0  0
   18.5358   10.9188  -10.4411 C   0  0  0  0  0  0  0  0  0  0  0  0
   18.6964    9.7712   -9.7213 C   0  0  0  0  0  0  0  0  0  0  0  0
   17.5788    8.9908   -9.2172 C   0  0  0  0  0  0  0  0  0  0  0  0
   19.6544   11.6760  -11.0296 C   0  0  1  0  0  0  0  0  0  0  0  0
   20.3815   10.6557  -11.9040 C   0  0  0  0  0  0  0  0  0  0  0  0
   21.5101    9.9657  -11.2245 C   0  0  0  0  0  0  0  0  0  0  0  0
   21.1499    9.2785   -9.9596 C   0  0  0  0  0  0  0  0  0  0  0  0
   20.0706    8.5191   -8.1651 C   0  0  0  0  0  0  0  0  0  0  0  0
   19.0249    8.2841   -7.1812 C   0  0  0  0  0  0  0  0  0  0  0  0
   15.0359   10.4465  -11.3838 C   0  0  0  0  0  0  0  0  0  0  0  0
   14.5485   11.6790  -11.7378 C   0  0  0  0  0  0  0  0  0  0  0  0
   13.9686    9.6249  -11.1965 C   0  0  0  0  0  0  0  0  0  0  0  0
   12.2921   12.6366  -12.0763 C   0  0  0  0  0  0  0  0  0  0  0  0
   20.0696   14.0731  -11.8430 C   0  0  0  0  0  0  0  0  0  0  0  0
   19.6740   15.2964  -11.3908 C   0  0  0  0  0  0  0  0  0  0  0  0
   20.4334   16.4128  -11.6390 C   0  0  0  0  0  0  0  0  0  0  0  0
   21.6001   16.2821  -12.3503 C   0  0  0  0  0  0  0  0  0  0  0  0
   22.0159   15.0720  -12.8116 C   0  0  0  0  0  0  0  0  0  0  0  0
   21.2567   13.9587  -12.5632 C   0  0  0  0  0  0  0  0  0  0  0  0
   19.9485    9.2119   -9.3092 N   0  0  0  0  0  0  0  0  0  0  0  0
   22.0106    8.6032   -9.1841 N   0  0  0  0  0  0  0  0  0  0  0  0
   21.3895    8.1512   -8.1259 N   0  0  0  0  0  0  0  0  0  0  0  0
   13.2091   11.5535  -11.7502 N   0  0  0  0  0  0  0  0  0  0  0  0
   12.8514   10.3383  -11.4305 N   0  0  0  0  0  0  0  0  0  0  0  0
   19.3265   12.8877  -11.6278 N   0  0  0  0  0  0  0  0  0  0  0  0
   22.5850   17.6929  -12.6793 Cl  0  0  0  0  0  0  0  0  0  0  0  0
  1  2  1  1
  6  1  1  0
  3  2  1  1
  2 13  1  0
  4  3  1  0
  4  5  2  0
  7  4  1  0
  6  5  1  6
  5 23  1  0
  7  8  1  0
  7 28  1  6
  8  9  1  6
  9 10  1  6
 10 23  1  0
 10 24  2  0
 12 11  1  6
 23 11  1  0
 11 25  2  0
 13 14  2  0
 13 15  1  0
 14 26  1  0
 15 27  2  0
 16 26  1  6
 17 18  2  0
 17 22  1  0
 17 28  1  0
 18 19  1  0
 19 20  2  0
 20 21  1  0
 20 29  1  0
 21 22  2  0
 24 25  1  0
 26 27  1  0
M  END
$$$$
