
     RDKit          3D

 29 33  0  0  0  0  0  0  0  0999 V2000
   22.1191   12.0084  -11.6169 C   0  0  0  0  0  0  0  0  0  0  0  0
   20.9298   12.7780  -12.0959 C   0  0  0  0  0  0  0  0  0  0  0  0
   19.7128   12.7060  -11.1906 C   0  0  0  0  0  0  0  0  0  0  0  0
   19.4393   11.3003  -10.8400 C   0  0  0  0  0  0  0  0  0  0  0  0
   20.5061   10.5783  -10.4023 C   0  0  0  0  0  0  0  0  0  0  0  0
   21.7510   11.2719  -10.3252 C   0  0  0  0  0  0  0  0  0  0  0  0
   18.0075   10.9090  -10.9653 C   0  0  1  0  0  0  0  0  0  0  0  0
   17.6942   10.1245   -9.6536 C   0  0  0  0  0  0  0  0  0  0  0  0
   17.9608    8.6828   -9.8243 C   0  0  0  0  0  0  0  0  0  0  0  0
   19.4048    8.3957   -9.8001 C   0  0  0  0  0  0  0  0  0  0  0  0
   21.6155    8.5078   -9.9579 C   0  0  0  0  0  0  0  0  0  0  0  0
   22.9800    8.9596  -10.1816 C   0  0  0  0  0  0  0  0  0  0  0  0
   20.5820   12.3743  -13.4661 C   0  0  0  0  0  0  0  0  0  0  0  0
   19.3118   12.2658  -13.9707 C   0  0  0  0  0  0  0  0  0  0  0  0
   21.4434   12.0376  -14.4755 C   0  0  0  0  0  0  0  0  0  0  0  0
   18.2837   11.6396  -16.1529 C   0  0  0  0  0  0  0  0  0  0  0  0
   17.7316   13.4043  -11.0180 C   0  0  0  0  0  0  0  0  0  0  0  0
   16.9551   14.4773  -11.4026 C   0  0  0  0  0  0  0  0  0  0  0  0
   17.5242   15.7336  -11.6018 C   0  0  0  0  0  0  0  0  0  0  0  0
   18.8740   15.9523  -11.4241 C   0  0  0  0  0  0  0  0  0  0  0  0
   19.6446   14.8766  -11.0400 C   0  0  0  0  0  0  0  0  0  0  0  0
   19.0795   13.6362  -10.8438 C   0  0  0  0  0  0  0  0  0  0  0  0
   20.4763    9.1942  -10.0603 N   0  0  0  0  0  0  0  0  0  0  0  0
   19.9262    7.1728   -9.5251 N   0  0  0  0  0  0  0  0  0  0  0  0
   21.2172    7.2362   -9.6168 N   0  0  0  0  0  0  0  0  0  0  0  0
   19.3938   11.8755  -15.2471 N   0  0  0  0  0  0  0  0  0  0  0  0
   20.6727   11.7363  -15.5576 N   0  0  0  0  0  0  0  0  0  0  0  0
   17.1673   12.0946  -10.8014 N   0  0  0  0  0  0  0  0  0  0  0  0
   19.5755   17.5475  -11.6806 Cl  0  0  0  0  0  0  0  0  0  0  0  0
  2  1  1  0
  6  1  1  0
  3  2  1  0
  2 13  1  0
  4  3  1  0
  4  5  2  0
  7  4  1  0
  5  6  1  0
  5 23  1  0
  7  8  1  0
  7 28  1  1
  8  9  1  0
  9 10  1  0
 10 23  1  0
 10 24  2  0
 11 12  1  0
 23 11  1  0
 11 25  2  0
 13 14  2  0
 13 15  1  0
 14 26  1  0
 15 27  2  0
 26 16  1  0
 17 18  2  0
 17 22  1  0
 17 28  1  0
 18 19  1  0
 19 20  2  0
 20 21  1  0
 20 29  1  0
 21 22  2  0
 24 25  1  0
 26 27  1  0
M  END
$$$$
