
     RDKit          3D

 29 33  0  0  0  0  0  0  0  0999 V2000
   16.8939    8.9485  -11.6105 C   0  0  0  0  0  0  0  0  0  0  0  0
   16.9100   10.3116  -12.2251 C   0  0  0  0  0  0  0  0  0  0  0  0
   18.2926   10.9019  -12.4391 C   0  0  0  0  0  0  0  0  0  0  0  0
   19.0829   10.7725  -11.2012 C   0  0  0  0  0  0  0  0  0  0  0  0
   19.0833    9.5415  -10.6219 C   0  0  0  0  0  0  0  0  0  0  0  0
   18.3314    8.5282  -11.2886 C   0  0  0  0  0  0  0  0  0  0  0  0
   19.8127   12.0116  -10.8125 C   0  0  1  0  0  0  0  0  0  0  0  0
   21.2509   11.5278  -10.4497 C   0  0  0  0  0  0  0  0  0  0  0  0
   21.3472   11.1861   -9.0170 C   0  0  0  0  0  0  0  0  0  0  0  0
   20.7036    9.8938   -8.7272 C   0  0  0  0  0  0  0  0  0  0  0  0
   19.4158    8.0867   -8.7544 C   0  0  0  0  0  0  0  0  0  0  0  0
   18.4187    7.0856   -9.1001 C   0  0  0  0  0  0  0  0  0  0  0  0
   16.0685   11.2304  -11.4446 C   0  0  0  0  0  0  0  0  0  0  0  0
   14.8095   10.9588  -10.9744 C   0  0  0  0  0  0  0  0  0  0  0  0
   16.3772   12.5040  -11.0485 C   0  0  0  0  0  0  0  0  0  0  0  0
   13.0753   12.1687   -9.6555 C   0  0  0  0  0  0  0  0  0  0  0  0
   19.7775   14.2271  -11.9938 C   0  0  0  0  0  0  0  0  0  0  0  0
   19.0973   14.8202  -10.9509 C   0  0  0  0  0  0  0  0  0  0  0  0
   18.8305   16.1879  -10.9603 C   0  0  0  0  0  0  0  0  0  0  0  0
   19.2321   16.9957  -12.0032 C   0  0  0  0  0  0  0  0  0  0  0  0
   19.9111   16.3975  -13.0423 C   0  0  0  0  0  0  0  0  0  0  0  0
   20.1734   15.0457  -13.0303 C   0  0  0  0  0  0  0  0  0  0  0  0
   19.7365    9.2099   -9.3985 N   0  0  0  0  0  0  0  0  0  0  0  0
   20.9786    9.1435   -7.6299 N   0  0  0  0  0  0  0  0  0  0  0  0
   20.2275    8.0876   -7.6439 N   0  0  0  0  0  0  0  0  0  0  0  0
   14.3629   12.0314  -10.3123 N   0  0  0  0  0  0  0  0  0  0  0  0
   15.3004   12.9647  -10.3528 N   0  0  0  0  0  0  0  0  0  0  0  0
   20.0700   12.8147  -12.0072 N   0  0  0  0  0  0  0  0  0  0  0  0
   18.8858   18.7226  -11.9976 Cl  0  0  0  0  0  0  0  0  0  0  0  0
  2  1  1  0
  6  1  1  0
  3  2  1  0
  2 13  1  0
  4  3  1  0
  4  5  2  0
  7  4  1  0
  5  6  1  0
  5 23  1  0
  7  8  1  0
  7 28  1  6
  8  9  1  0
  9 10  1  0
 10 23  1  0
 10 24  2  0
 11 12  1  0
 23 11  1  0
 11 25  2  0
 13 14  2  0
 13 15  1  0
 14 26  1  0
 15 27  2  0
 26 16  1  0
 17 18  2  0
 17 22  1  0
 17 28  1  0
 18 19  1  0
 19 20  2  0
 20 21  1  0
 20 29  1  0
 21 22  2  0
 24 25  1  0
 26 27  1  0
M  END
$$$$
