
     RDKit          3D

 29 33  0  0  0  0  0  0  0  0999 V2000
   16.7467    9.2923  -11.4641 C   0  0  0  0  0  0  0  0  0  0  0  0
   16.8716   10.6326  -12.1154 C   0  0  0  0  0  0  0  0  0  0  0  0
   18.2955   11.0766  -12.4000 C   0  0  0  0  0  0  0  0  0  0  0  0
   19.1207   10.8972  -11.1915 C   0  0  0  0  0  0  0  0  0  0  0  0
   19.0238    9.6859  -10.5797 C   0  0  0  0  0  0  0  0  0  0  0  0
   18.1478    8.7378  -11.1884 C   0  0  0  0  0  0  0  0  0  0  0  0
   19.9853   12.0656  -10.8657 C   0  0  1  0  0  0  0  0  0  0  0  0
   21.3826   11.4488  -10.5474 C   0  0  0  0  0  0  0  0  0  0  0  0
   21.5051   11.1321   -9.1110 C   0  0  0  0  0  0  0  0  0  0  0  0
   20.7496    9.9176   -8.7611 C   0  0  0  0  0  0  0  0  0  0  0  0
   19.2892    8.2482   -8.6883 C   0  0  0  0  0  0  0  0  0  0  0  0
   18.1842    7.3442   -8.9670 C   0  0  0  0  0  0  0  0  0  0  0  0
   16.1588   11.6485  -11.3272 C   0  0  0  0  0  0  0  0  0  0  0  0
   16.5730   12.9395  -11.1233 C   0  0  0  0  0  0  0  0  0  0  0  0
   14.9716   11.4997  -10.6618 C   0  0  0  0  0  0  0  0  0  0  0  0
   15.7189   14.9381   -9.9039 C   0  0  0  0  0  0  0  0  0  0  0  0
   19.9202   14.2083  -12.1733 C   0  0  0  0  0  0  0  0  0  0  0  0
   19.3581   14.8823  -11.1093 C   0  0  0  0  0  0  0  0  0  0  0  0
   19.0325   16.2333  -11.2133 C   0  0  0  0  0  0  0  0  0  0  0  0
   19.2571   16.9438  -12.3736 C   0  0  0  0  0  0  0  0  0  0  0  0
   19.8186   16.2651  -13.4331 C   0  0  0  0  0  0  0  0  0  0  0  0
   20.1394   14.9300  -13.3274 C   0  0  0  0  0  0  0  0  0  0  0  0
   19.6920    9.3187   -9.3747 N   0  0  0  0  0  0  0  0  0  0  0  0
   20.9951    9.1688   -7.6558 N   0  0  0  0  0  0  0  0  0  0  0  0
   20.1432    8.1933   -7.6114 N   0  0  0  0  0  0  0  0  0  0  0  0
   15.6685   13.5600  -10.3583 N   0  0  0  0  0  0  0  0  0  0  0  0
   14.7026   12.7002  -10.0769 N   0  0  0  0  0  0  0  0  0  0  0  0
   20.2702   12.8115  -12.0908 N   0  0  0  0  0  0  0  0  0  0  0  0
   18.8389   18.6511  -12.4864 Cl  0  0  0  0  0  0  0  0  0  0  0  0
  2  1  1  0
  6  1  1  0
  3  2  1  0
  2 13  1  0
  4  3  1  0
  4  5  2  0
  7  4  1  0
  5  6  1  0
  5 23  1  0
  7  8  1  0
  7 28  1  6
  8  9  1  0
  9 10  1  0
 10 23  1  0
 10 24  2  0
 11 12  1  0
 23 11  1  0
 11 25  2  0
 13 14  2  0
 13 15  1  0
 14 26  1  0
 15 27  2  0
 26 16  1  0
 17 18  2  0
 17 22  1  0
 17 28  1  0
 18 19  1  0
 19 20  2  0
 20 21  1  0
 20 29  1  0
 21 22  2  0
 24 25  1  0
 26 27  1  0
M  END
$$$$
