
     RDKit          3D

 29 33  0  0  0  0  0  0  0  0999 V2000
   16.7758   10.9930   -9.9790 C   0  0  0  0  0  0  0  0  0  0  0  0
   17.1408   11.8851  -11.1222 C   0  0  0  0  0  0  0  0  0  0  0  0
   18.1924   11.3237  -12.0628 C   0  0  0  0  0  0  0  0  0  0  0  0
   19.3369   10.8202  -11.2816 C   0  0  0  0  0  0  0  0  0  0  0  0
   19.0306   10.0068  -10.2349 C   0  0  0  0  0  0  0  0  0  0  0  0
   17.6450    9.7327  -10.0309 C   0  0  0  0  0  0  0  0  0  0  0  0
   20.6655   11.2398  -11.8085 C   0  0  1  0  0  0  0  0  0  0  0  0
   21.5258    9.9383  -11.7978 C   0  0  0  0  0  0  0  0  0  0  0  0
   22.2367    9.7861  -10.5133 C   0  0  0  0  0  0  0  0  0  0  0  0
   21.3269    9.3436   -9.4434 C   0  0  0  0  0  0  0  0  0  0  0  0
   19.5612    8.9459   -8.1594 C   0  0  0  0  0  0  0  0  0  0  0  0
   18.2137    8.8858   -7.6148 C   0  0  0  0  0  0  0  0  0  0  0  0
   17.5429   13.2089  -10.6248 C   0  0  0  0  0  0  0  0  0  0  0  0
   16.6914   14.2064  -10.2250 C   0  0  0  0  0  0  0  0  0  0  0  0
   18.8172   13.6851  -10.4704 C   0  0  0  0  0  0  0  0  0  0  0  0
   16.9167   16.5263   -9.3429 C   0  0  0  0  0  0  0  0  0  0  0  0
   20.7256   12.8459  -13.7379 C   0  0  0  0  0  0  0  0  0  0  0  0
   20.8556   13.9241  -12.8876 C   0  0  0  0  0  0  0  0  0  0  0  0
   21.0236   15.2125  -13.3912 C   0  0  0  0  0  0  0  0  0  0  0  0
   21.0660   15.4589  -14.7473 C   0  0  0  0  0  0  0  0  0  0  0  0
   20.9355   14.3779  -15.5916 C   0  0  0  0  0  0  0  0  0  0  0  0
   20.7697   13.1057  -15.0912 C   0  0  0  0  0  0  0  0  0  0  0  0
   19.9753    9.4527   -9.3217 N   0  0  0  0  0  0  0  0  0  0  0  0
   21.7431    8.7394   -8.3013 N   0  0  0  0  0  0  0  0  0  0  0  0
   20.7133    8.5063   -7.5500 N   0  0  0  0  0  0  0  0  0  0  0  0
   17.4212   15.2582   -9.8387 N   0  0  0  0  0  0  0  0  0  0  0  0
   18.7006   14.9520   -9.9835 N   0  0  0  0  0  0  0  0  0  0  0  0
   20.5546   11.5019  -13.2430 N   0  0  0  0  0  0  0  0  0  0  0  0
   21.2791   17.0945  -15.3653 Cl  0  0  0  0  0  0  0  0  0  0  0  0
  2  1  1  0
  6  1  1  0
  3  2  1  0
  2 13  1  0
  4  3  1  0
  4  5  2  0
  7  4  1  0
  5  6  1  0
  5 23  1  0
  7  8  1  0
  7 28  1  6
  8  9  1  0
  9 10  1  0
 10 23  1  0
 10 24  2  0
 11 12  1  0
 23 11  1  0
 11 25  2  0
 13 14  2  0
 13 15  1  0
 14 26  1  0
 15 27  2  0
 26 16  1  0
 17 18  2  0
 17 22  1  0
 17 28  1  0
 18 19  1  0
 19 20  2  0
 20 21  1  0
 20 29  1  0
 21 22  2  0
 24 25  1  0
 26 27  1  0
M  END
$$$$
