
     RDKit          3D

 29 33  0  0  0  0  0  0  0  0999 V2000
   16.3713   10.2189  -10.8161 C   0  0  0  0  0  0  0  0  0  0  0  0
   16.7242   11.3770  -11.6938 C   0  0  0  0  0  0  0  0  0  0  0  0
   18.0350   11.2343  -12.4470 C   0  0  0  0  0  0  0  0  0  0  0  0
   19.0987   10.8185  -11.5146 C   0  0  0  0  0  0  0  0  0  0  0  0
   18.8014    9.7670  -10.7041 C   0  0  0  0  0  0  0  0  0  0  0  0
   17.5058    9.1907  -10.8648 C   0  0  0  0  0  0  0  0  0  0  0  0
   20.3662   11.5883  -11.6547 C   0  0  1  0  0  0  0  0  0  0  0  0
   21.4901   10.5062  -11.6516 C   0  0  0  0  0  0  0  0  0  0  0  0
   21.9637   10.2410  -10.2790 C   0  0  0  0  0  0  0  0  0  0  0  0
   20.9995    9.4221   -9.5255 C   0  0  0  0  0  0  0  0  0  0  0  0
   19.1681    8.4350   -8.7532 C   0  0  0  0  0  0  0  0  0  0  0  0
   17.7949    8.0030   -8.5445 C   0  0  0  0  0  0  0  0  0  0  0  0
   16.7042   12.6261  -10.9187 C   0  0  0  0  0  0  0  0  0  0  0  0
   15.5875   13.3597  -10.6113 C   0  0  0  0  0  0  0  0  0  0  0  0
   17.7751   13.2785  -10.3691 C   0  0  0  0  0  0  0  0  0  0  0  0
   15.0950   15.4625   -9.3676 C   0  0  0  0  0  0  0  0  0  0  0  0
   20.2814   13.5167  -13.2609 C   0  0  0  0  0  0  0  0  0  0  0  0
   19.0266   14.0733  -13.3949 C   0  0  0  0  0  0  0  0  0  0  0  0
   18.8738   15.4391  -13.6252 C   0  0  0  0  0  0  0  0  0  0  0  0
   19.9611   16.2811  -13.7275 C   0  0  0  0  0  0  0  0  0  0  0  0
   21.2119   15.7193  -13.5928 C   0  0  0  0  0  0  0  0  0  0  0  0
   21.3599   14.3692  -13.3652 C   0  0  0  0  0  0  0  0  0  0  0  0
   19.6617    9.2369   -9.6980 N   0  0  0  0  0  0  0  0  0  0  0  0
   21.3245    8.6940   -8.4269 N   0  0  0  0  0  0  0  0  0  0  0  0
   20.2563    8.1168   -7.9743 N   0  0  0  0  0  0  0  0  0  0  0  0
   15.9632   14.4260   -9.8970 N   0  0  0  0  0  0  0  0  0  0  0  0
   17.2775   14.3837   -9.7474 N   0  0  0  0  0  0  0  0  0  0  0  0
   20.4673   12.1070  -13.0183 N   0  0  0  0  0  0  0  0  0  0  0  0
   19.7483   18.0051  -14.0188 Cl  0  0  0  0  0  0  0  0  0  0  0  0
  2  1  1  0
  6  1  1  0
  3  2  1  0
  2 13  1  0
  4  3  1  0
  4  5  2  0
  7  4  1  0
  5  6  1  0
  5 23  1  0
  7  8  1  0
  7 28  1  6
  8  9  1  0
  9 10  1  0
 10 23  1  0
 10 24  2  0
 11 12  1  0
 23 11  1  0
 11 25  2  0
 13 14  2  0
 13 15  1  0
 14 26  1  0
 15 27  2  0
 26 16  1  0
 17 18  2  0
 17 22  1  0
 17 28  1  0
 18 19  1  0
 19 20  2  0
 20 21  1  0
 20 29  1  0
 21 22  2  0
 24 25  1  0
 26 27  1  0
M  END
$$$$
