
     RDKit          3D

 29 33  0  0  0  0  0  0  0  0999 V2000
   16.3619    9.0598  -10.5147 C   0  0  0  0  0  0  0  0  0  0  0  0
   16.2930   10.2478  -11.3763 C   0  0  0  0  0  0  0  0  0  0  0  0
   17.0200   11.4732  -10.8516 C   0  0  0  0  0  0  0  0  0  0  0  0
   18.3738   11.0336  -10.6183 C   0  0  0  0  0  0  0  0  0  0  0  0
   18.4931    9.9143   -9.8477 C   0  0  0  0  0  0  0  0  0  0  0  0
   17.3483    9.1984   -9.3100 C   0  0  0  0  0  0  0  0  0  0  0  0
   19.5187   11.7225  -11.2393 C   0  0  1  0  0  0  0  0  0  0  0  0
   20.2075   10.6382  -12.0665 C   0  0  0  0  0  0  0  0  0  0  0  0
   21.3108    9.9388  -11.3559 C   0  0  0  0  0  0  0  0  0  0  0  0
   20.9269    9.3225  -10.0617 C   0  0  0  0  0  0  0  0  0  0  0  0
   19.8222    8.6840   -8.2358 C   0  0  0  0  0  0  0  0  0  0  0  0
   18.7694    8.5316   -7.2433 C   0  0  0  0  0  0  0  0  0  0  0  0
   14.8582   10.6471  -11.5418 C   0  0  0  0  0  0  0  0  0  0  0  0
   14.4169   11.8517  -12.0275 C   0  0  0  0  0  0  0  0  0  0  0  0
   13.7608    9.9010  -11.2443 C   0  0  0  0  0  0  0  0  0  0  0  0
   12.1969   12.8648  -12.4383 C   0  0  0  0  0  0  0  0  0  0  0  0
   20.0145   14.0713  -12.1430 C   0  0  0  0  0  0  0  0  0  0  0  0
   19.8673   15.2384  -11.4547 C   0  0  0  0  0  0  0  0  0  0  0  0
   20.6479   16.3282  -11.7508 C   0  0  0  0  0  0  0  0  0  0  0  0
   21.5820   16.2282  -12.7515 C   0  0  0  0  0  0  0  0  0  0  0  0
   21.7478   15.0743  -13.4523 C   0  0  0  0  0  0  0  0  0  0  0  0
   20.9678   13.9876  -13.1557 C   0  0  0  0  0  0  0  0  0  0  0  0
   19.7244    9.3288   -9.4099 N   0  0  0  0  0  0  0  0  0  0  0  0
   21.7631    8.6518   -9.2560 N   0  0  0  0  0  0  0  0  0  0  0  0
   21.1268    8.2705   -8.1791 N   0  0  0  0  0  0  0  0  0  0  0  0
   13.0734   11.7859  -12.0042 N   0  0  0  0  0  0  0  0  0  0  0  0
   12.6706   10.6325  -11.5412 N   0  0  0  0  0  0  0  0  0  0  0  0
   19.2346   12.9172  -11.8915 N   0  0  0  0  0  0  0  0  0  0  0  0
   22.5890   17.6061  -13.1469 Cl  0  0  0  0  0  0  0  0  0  0  0  0
  1  2  1  1
  6  1  1  0
  3  2  1  1
  2 13  1  0
  4  3  1  0
  4  5  2  0
  7  4  1  0
  6  5  1  6
  5 23  1  0
  7  8  1  0
  7 28  1  6
  8  9  1  6
  9 10  1  6
 10 23  1  0
 10 24  2  0
 12 11  1  6
 23 11  1  0
 11 25  2  0
 13 14  2  0
 13 15  1  0
 14 26  1  0
 15 27  2  0
 16 26  1  6
 17 18  2  0
 17 22  1  0
 17 28  1  0
 18 19  1  0
 19 20  2  0
 20 21  1  0
 20 29  1  0
 21 22  2  0
 24 25  1  0
 26 27  1  0
M  END
$$$$
