
     RDKit          3D

 29 33  0  0  0  0  0  0  0  0999 V2000
   16.2704    9.4975  -11.1359 C   0  0  0  0  0  0  0  0  0  0  0  0
   16.5134   10.8005  -11.8282 C   0  0  0  0  0  0  0  0  0  0  0  0
   17.9346   11.0094  -12.3204 C   0  0  0  0  0  0  0  0  0  0  0  0
   18.8844   10.6985  -11.2366 C   0  0  0  0  0  0  0  0  0  0  0  0
   18.6837    9.5183  -10.5903 C   0  0  0  0  0  0  0  0  0  0  0  0
   17.5899    8.7242  -11.0481 C   0  0  0  0  0  0  0  0  0  0  0  0
   19.9620   11.7121  -11.0621 C   0  0  1  0  0  0  0  0  0  0  0  0
   21.2739   10.8780  -10.9302 C   0  0  0  0  0  0  0  0  0  0  0  0
   21.5479   10.5448   -9.5186 C   0  0  0  0  0  0  0  0  0  0  0  0
   20.6660    9.4678   -9.0387 C   0  0  0  0  0  0  0  0  0  0  0  0
   18.9835    8.0555   -8.7234 C   0  0  0  0  0  0  0  0  0  0  0  0
   17.7200    7.3416   -8.8233 C   0  0  0  0  0  0  0  0  0  0  0  0
   16.0918   11.9175  -10.9703 C   0  0  0  0  0  0  0  0  0  0  0  0
   16.3015   13.2478  -11.2274 C   0  0  0  0  0  0  0  0  0  0  0  0
   15.4240   11.8412   -9.7775 C   0  0  0  0  0  0  0  0  0  0  0  0
   15.7817   15.4083  -10.0991 C   0  0  0  0  0  0  0  0  0  0  0  0
   20.0381   13.8365  -12.3988 C   0  0  0  0  0  0  0  0  0  0  0  0
   19.4148   14.5526  -11.3984 C   0  0  0  0  0  0  0  0  0  0  0  0
   19.2896   15.9377  -11.4855 C   0  0  0  0  0  0  0  0  0  0  0  0
   19.7792   16.6414  -12.5656 C   0  0  0  0  0  0  0  0  0  0  0  0
   20.4007   15.9206  -13.5619 C   0  0  0  0  0  0  0  0  0  0  0  0
   20.5231   14.5518  -13.4731 C   0  0  0  0  0  0  0  0  0  0  0  0
   19.4498    9.0475   -9.4835 N   0  0  0  0  0  0  0  0  0  0  0  0
   20.9440    8.6885   -7.9625 N   0  0  0  0  0  0  0  0  0  0  0  0
   19.9626    7.8630   -7.7767 N   0  0  0  0  0  0  0  0  0  0  0  0
   15.7791   13.9617  -10.2245 N   0  0  0  0  0  0  0  0  0  0  0  0
   15.2496   13.1224   -9.3489 N   0  0  0  0  0  0  0  0  0  0  0  0
   20.1845   12.4031  -12.3316 N   0  0  0  0  0  0  0  0  0  0  0  0
   19.6116   18.3923  -12.6583 Cl  0  0  0  0  0  0  0  0  0  0  0  0
  2  1  1  0
  6  1  1  0
  3  2  1  0
  2 13  1  0
  4  3  1  0
  4  5  2  0
  7  4  1  0
  5  6  1  0
  5 23  1  0
  7  8  1  0
  7 28  1  6
  8  9  1  0
  9 10  1  0
 10 23  1  0
 10 24  2  0
 11 12  1  0
 23 11  1  0
 11 25  2  0
 13 14  2  0
 13 15  1  0
 14 26  1  0
 15 27  2  0
 26 16  1  0
 17 18  2  0
 17 22  1  0
 17 28  1  0
 18 19  1  0
 19 20  2  0
 20 21  1  0
 20 29  1  0
 21 22  2  0
 24 25  1  0
 26 27  1  0
M  END
$$$$
