
     RDKit          3D

 29 33  0  0  0  0  0  0  0  0999 V2000
   16.6313   10.5094   -9.9409 C   0  0  0  0  0  0  0  0  0  0  0  0
   16.8588   11.4319  -11.0956 C   0  0  0  0  0  0  0  0  0  0  0  0
   17.9140   10.9713  -12.0856 C   0  0  0  0  0  0  0  0  0  0  0  0
   19.1350   10.5767  -11.3597 C   0  0  0  0  0  0  0  0  0  0  0  0
   18.9542    9.7381  -10.3037 C   0  0  0  0  0  0  0  0  0  0  0  0
   17.6109    9.3357  -10.0380 C   0  0  0  0  0  0  0  0  0  0  0  0
   20.3931   11.1186  -11.9447 C   0  0  1  0  0  0  0  0  0  0  0  0
   21.3706    9.9030  -11.9791 C   0  0  0  0  0  0  0  0  0  0  0  0
   22.1508    9.8176  -10.7290 C   0  0  0  0  0  0  0  0  0  0  0  0
   21.3361    9.2919   -9.6207 C   0  0  0  0  0  0  0  0  0  0  0  0
   19.6758    8.7309   -8.2593 C   0  0  0  0  0  0  0  0  0  0  0  0
   18.3661    8.5452   -7.6541 C   0  0  0  0  0  0  0  0  0  0  0  0
   17.1581   12.7873  -10.6112 C   0  0  0  0  0  0  0  0  0  0  0  0
   18.3697   13.2182  -10.1357 C   0  0  0  0  0  0  0  0  0  0  0  0
   16.3008   13.8527  -10.5450 C   0  0  0  0  0  0  0  0  0  0  0  0
   19.3037   15.3485   -9.2409 C   0  0  0  0  0  0  0  0  0  0  0  0
   20.4065   12.6945  -13.8997 C   0  0  0  0  0  0  0  0  0  0  0  0
   21.3470   13.5492  -13.3637 C   0  0  0  0  0  0  0  0  0  0  0  0
   21.5368   14.8234  -13.8950 C   0  0  0  0  0  0  0  0  0  0  0  0
   20.7986   15.2766  -14.9679 C   0  0  0  0  0  0  0  0  0  0  0  0
   19.8605   14.4184  -15.4989 C   0  0  0  0  0  0  0  0  0  0  0  0
   19.6752   13.1597  -14.9719 C   0  0  0  0  0  0  0  0  0  0  0  0
   19.9872    9.2744   -9.4370 N   0  0  0  0  0  0  0  0  0  0  0  0
   21.8587    8.7290   -8.5014 N   0  0  0  0  0  0  0  0  0  0  0  0
   20.8906    8.4007   -7.7051 N   0  0  0  0  0  0  0  0  0  0  0  0
   18.2570   14.5051   -9.7900 N   0  0  0  0  0  0  0  0  0  0  0  0
   17.0155   14.8935  -10.0334 N   0  0  0  0  0  0  0  0  0  0  0  0
   20.1928   11.3694  -13.3714 N   0  0  0  0  0  0  0  0  0  0  0  0
   21.0526   16.8906  -15.6260 Cl  0  0  0  0  0  0  0  0  0  0  0  0
  2  1  1  0
  6  1  1  0
  3  2  1  0
  2 13  1  0
  4  3  1  0
  4  5  2  0
  7  4  1  0
  5  6  1  0
  5 23  1  0
  7  8  1  0
  7 28  1  6
  8  9  1  0
  9 10  1  0
 10 23  1  0
 10 24  2  0
 11 12  1  0
 23 11  1  0
 11 25  2  0
 13 14  2  0
 13 15  1  0
 14 26  1  0
 15 27  2  0
 26 16  1  0
 17 18  2  0
 17 22  1  0
 17 28  1  0
 18 19  1  0
 19 20  2  0
 20 21  1  0
 20 29  1  0
 21 22  2  0
 24 25  1  0
 26 27  1  0
M  END
$$$$
