
     RDKit          3D

 29 33  0  0  0  0  0  0  0  0999 V2000
   16.7183    9.3797  -11.2699 C   0  0  0  0  0  0  0  0  0  0  0  0
   16.7939   10.7799  -11.7082 C   0  0  0  0  0  0  0  0  0  0  0  0
   17.4641   11.7303  -10.7321 C   0  0  0  0  0  0  0  0  0  0  0  0
   18.7630   11.1553  -10.4822 C   0  0  0  0  0  0  0  0  0  0  0  0
   18.7515    9.8455  -10.1010 C   0  0  0  0  0  0  0  0  0  0  0  0
   17.5288    9.0709   -9.9694 C   0  0  0  0  0  0  0  0  0  0  0  0
   19.9969   11.9305  -10.7005 C   0  0  1  0  0  0  0  0  0  0  0  0
   20.7733   11.1193  -11.7366 C   0  0  0  0  0  0  0  0  0  0  0  0
   21.7525   10.1641  -11.1531 C   0  0  0  0  0  0  0  0  0  0  0  0
   21.1792    9.1985  -10.1831 C   0  0  0  0  0  0  0  0  0  0  0  0
   19.8174    8.0904   -8.8120 C   0  0  0  0  0  0  0  0  0  0  0  0
   18.6333    7.7010   -8.0617 C   0  0  0  0  0  0  0  0  0  0  0  0
   15.4045   11.3006  -11.9176 C   0  0  0  0  0  0  0  0  0  0  0  0
   14.4264   11.3707  -10.9583 C   0  0  0  0  0  0  0  0  0  0  0  0
   14.8770   11.7854  -13.0734 C   0  0  0  0  0  0  0  0  0  0  0  0
   12.0751   12.1401  -10.9104 C   0  0  0  0  0  0  0  0  0  0  0  0
   20.0339   14.0551  -12.1373 C   0  0  0  0  0  0  0  0  0  0  0  0
   20.9281   15.0810  -12.2115 C   0  0  0  0  0  0  0  0  0  0  0  0
   21.0745   15.7984  -13.3728 C   0  0  0  0  0  0  0  0  0  0  0  0
   20.3073   15.4690  -14.4624 C   0  0  0  0  0  0  0  0  0  0  0  0
   19.4086   14.4493  -14.4128 C   0  0  0  0  0  0  0  0  0  0  0  0
   19.2634   13.7343  -13.2530 C   0  0  0  0  0  0  0  0  0  0  0  0
   19.8976    9.0758   -9.7211 N   0  0  0  0  0  0  0  0  0  0  0  0
   21.8810    8.2574   -9.5349 N   0  0  0  0  0  0  0  0  0  0  0  0
   21.0929    7.5985   -8.7259 N   0  0  0  0  0  0  0  0  0  0  0  0
   13.3491   11.8937  -11.5712 N   0  0  0  0  0  0  0  0  0  0  0  0
   13.6032   12.1447  -12.8279 N   0  0  0  0  0  0  0  0  0  0  0  0
   19.8303   13.2849  -10.9673 N   0  0  0  0  0  0  0  0  0  0  0  0
   20.4769   16.3709  -15.9546 Cl  0  0  0  0  0  0  0  0  0  0  0  0
  1  2  1  1
  6  1  1  0
  3  2  1  1
  2 13  1  0
  4  3  1  0
  4  5  2  0
  7  4  1  0
  6  5  1  6
  5 23  1  0
  7  8  1  0
  7 28  1  6
  8  9  1  6
  9 10  1  6
 10 23  1  0
 10 24  2  0
 12 11  1  6
 23 11  1  0
 11 25  2  0
 13 14  2  0
 13 15  1  0
 14 26  1  0
 15 27  2  0
 16 26  1  6
 17 18  2  0
 17 22  1  0
 17 28  1  0
 18 19  1  0
 19 20  2  0
 20 21  1  0
 20 29  1  0
 21 22  2  0
 24 25  1  0
 26 27  1  0
M  END
$$$$
