
     RDKit          3D

 29 33  0  0  0  0  0  0  0  0999 V2000
   21.2063    9.1990  -13.2175 C   0  0  0  0  0  0  0  0  0  0  0  0
   21.1642   10.5801  -13.7168 C   0  0  0  0  0  0  0  0  0  0  0  0
   19.9804   11.4053  -13.2444 C   0  0  0  0  0  0  0  0  0  0  0  0
   20.0270   11.3360  -11.8045 C   0  0  0  0  0  0  0  0  0  0  0  0
   20.0977   10.0751  -11.2887 C   0  0  0  0  0  0  0  0  0  0  0  0
   20.1411    8.8825  -12.1181 C   0  0  0  0  0  0  0  0  0  0  0  0
   20.0658   12.5576  -10.9815 C   0  0  1  0  0  0  0  0  0  0  0  0
   21.3637   12.4341  -10.1848 C   0  0  0  0  0  0  0  0  0  0  0  0
   21.1982   11.8140   -8.8433 C   0  0  0  0  0  0  0  0  0  0  0  0
   20.5612   10.4737   -8.8503 C   0  0  0  0  0  0  0  0  0  0  0  0
   19.5370    8.5905   -9.4557 C   0  0  0  0  0  0  0  0  0  0  0  0
   18.8738    7.5799  -10.2653 C   0  0  0  0  0  0  0  0  0  0  0  0
   21.0908   10.5552  -15.2133 C   0  0  0  0  0  0  0  0  0  0  0  0
   20.6147   11.5691  -16.0051 C   0  0  0  0  0  0  0  0  0  0  0  0
   21.4746    9.5421  -16.0354 C   0  0  0  0  0  0  0  0  0  0  0  0
   20.3327   11.9010  -18.4410 C   0  0  0  0  0  0  0  0  0  0  0  0
   19.6263   15.0755  -11.1968 C   0  0  0  0  0  0  0  0  0  0  0  0
   20.5713   16.0571  -11.2290 C   0  0  0  0  0  0  0  0  0  0  0  0
   20.2879   17.3163  -10.7615 C   0  0  0  0  0  0  0  0  0  0  0  0
   19.0370   17.5763  -10.2597 C   0  0  0  0  0  0  0  0  0  0  0  0
   18.0772   16.6135  -10.2173 C   0  0  0  0  0  0  0  0  0  0  0  0
   18.3617   15.3571  -10.6842 C   0  0  0  0  0  0  0  0  0  0  0  0
   20.0748    9.7395   -9.8968 N   0  0  0  0  0  0  0  0  0  0  0  0
   20.3104    9.7404   -7.7561 N   0  0  0  0  0  0  0  0  0  0  0  0
   19.7087    8.6307   -8.0973 N   0  0  0  0  0  0  0  0  0  0  0  0
   20.7293   11.1295  -17.2714 N   0  0  0  0  0  0  0  0  0  0  0  0
   21.2387    9.9269  -17.3036 N   0  0  0  0  0  0  0  0  0  0  0  0
   19.8599   13.7567  -11.6547 N   0  0  0  0  0  0  0  0  0  0  0  0
   18.6529   19.1758   -9.6573 Cl  0  0  0  0  0  0  0  0  0  0  0  0
  1  2  1  1
  6  1  1  0
  3  2  1  1
  2 13  1  0
  4  3  1  0
  4  5  2  0
  7  4  1  0
  6  5  1  6
  5 23  1  0
  7  8  1  0
  7 28  1  6
  8  9  1  6
  9 10  1  6
 10 23  1  0
 10 24  2  0
 12 11  1  6
 23 11  1  0
 11 25  2  0
 13 14  2  0
 13 15  1  0
 14 26  1  0
 15 27  2  0
 16 26  1  6
 17 18  2  0
 17 22  1  0
 17 28  1  0
 18 19  1  0
 19 20  2  0
 20 21  1  0
 20 29  1  0
 21 22  2  0
 24 25  1  0
 26 27  1  0
M  END
$$$$
