
     RDKit          3D

 29 33  0  0  0  0  0  0  0  0999 V2000
   21.0256   12.4823  -11.0245 C   0  0  0  0  0  0  0  0  0  0  0  0
   19.6662   12.6841  -11.5439 C   0  0  0  0  0  0  0  0  0  0  0  0
   19.0577   11.4867  -12.2521 C   0  0  0  0  0  0  0  0  0  0  0  0
   19.1334   10.4088  -11.2967 C   0  0  0  0  0  0  0  0  0  0  0  0
   20.3697   10.1983  -10.7599 C   0  0  0  0  0  0  0  0  0  0  0  0
   21.5290   11.0046  -11.1038 C   0  0  0  0  0  0  0  0  0  0  0  0
   17.9317    9.6554  -10.8976 C   0  0  1  0  0  0  0  0  0  0  0  0
   17.8429    9.8606   -9.3862 C   0  0  0  0  0  0  0  0  0  0  0  0
   18.4963    8.7902   -8.5869 C   0  0  0  0  0  0  0  0  0  0  0  0
   19.9247    8.5531   -8.9120 C   0  0  0  0  0  0  0  0  0  0  0  0
   21.9471    8.6008   -9.8445 C   0  0  0  0  0  0  0  0  0  0  0  0
   23.0465    8.9310  -10.7384 C   0  0  0  0  0  0  0  0  0  0  0  0
   19.6872   13.7998  -12.5438 C   0  0  0  0  0  0  0  0  0  0  0  0
   20.3594   14.9869  -12.3998 C   0  0  0  0  0  0  0  0  0  0  0  0
   19.0547   13.8332  -13.7473 C   0  0  0  0  0  0  0  0  0  0  0  0
   20.6312   17.0221  -13.7809 C   0  0  0  0  0  0  0  0  0  0  0  0
   15.9470   11.0529  -11.7270 C   0  0  0  0  0  0  0  0  0  0  0  0
   16.1327   12.0362  -12.6523 C   0  0  0  0  0  0  0  0  0  0  0  0
   15.2988   13.1260  -12.6916 C   0  0  0  0  0  0  0  0  0  0  0  0
   14.2718   13.2139  -11.7850 C   0  0  0  0  0  0  0  0  0  0  0  0
   14.0661   12.2453  -10.8525 C   0  0  0  0  0  0  0  0  0  0  0  0
   14.8994   11.1583  -10.8145 C   0  0  0  0  0  0  0  0  0  0  0  0
   20.7193    9.1451   -9.8550 N   0  0  0  0  0  0  0  0  0  0  0  0
   20.7015    7.6341   -8.3204 N   0  0  0  0  0  0  0  0  0  0  0  0
   21.8931    7.6514   -8.8586 N   0  0  0  0  0  0  0  0  0  0  0  0
   20.1070   15.6889  -13.5193 N   0  0  0  0  0  0  0  0  0  0  0  0
   19.3333   15.0151  -14.3281 N   0  0  0  0  0  0  0  0  0  0  0  0
   16.7774    9.9107  -11.6296 N   0  0  0  0  0  0  0  0  0  0  0  0
   13.1954   14.5956  -11.8162 Cl  0  0  0  0  0  0  0  0  0  0  0  0
  1  2  1  1
  6  1  1  0
  3  2  1  1
  2 13  1  0
  4  3  1  0
  4  5  2  0
  7  4  1  0
  6  5  1  6
  5 23  1  0
  7  8  1  0
  7 28  1  6
  8  9  1  6
  9 10  1  6
 10 23  1  0
 10 24  2  0
 12 11  1  6
 23 11  1  0
 11 25  2  0
 13 14  2  0
 13 15  1  0
 14 26  1  0
 15 27  2  0
 16 26  1  6
 17 18  2  0
 17 22  1  0
 17 28  1  0
 18 19  1  0
 19 20  2  0
 20 21  1  0
 20 29  1  0
 21 22  2  0
 24 25  1  0
 26 27  1  0
M  END
$$$$
