
     RDKit          3D

 29 33  0  0  0  0  0  0  0  0999 V2000
   16.8845    9.8825  -10.9487 C   0  0  0  0  0  0  0  0  0  0  0  0
   17.1866   11.2292  -11.4522 C   0  0  0  0  0  0  0  0  0  0  0  0
   18.0764   12.0726  -10.5564 C   0  0  0  0  0  0  0  0  0  0  0  0
   19.2619   11.2771  -10.3510 C   0  0  0  0  0  0  0  0  0  0  0  0
   19.0356   10.0055   -9.9119 C   0  0  0  0  0  0  0  0  0  0  0  0
   17.7028    9.4740   -9.6810 C   0  0  0  0  0  0  0  0  0  0  0  0
   20.6006   11.8042  -10.6691 C   0  0  1  0  0  0  0  0  0  0  0  0
   21.1523   10.8293  -11.7082 C   0  0  0  0  0  0  0  0  0  0  0  0
   21.9750    9.7305  -11.1360 C   0  0  0  0  0  0  0  0  0  0  0  0
   21.2957    8.9203  -10.0948 C   0  0  0  0  0  0  0  0  0  0  0  0
   19.8409    8.1289   -8.6051 C   0  0  0  0  0  0  0  0  0  0  0  0
   18.6535    7.9897   -7.7760 C   0  0  0  0  0  0  0  0  0  0  0  0
   15.9050   11.9893  -11.6099 C   0  0  0  0  0  0  0  0  0  0  0  0
   15.7814   13.3555  -11.5957 C   0  0  0  0  0  0  0  0  0  0  0  0
   14.6613   11.4696  -11.7903 C   0  0  0  0  0  0  0  0  0  0  0  0
   13.8963   14.9437  -11.8131 C   0  0  0  0  0  0  0  0  0  0  0  0
   20.4564   13.8598  -12.1966 C   0  0  0  0  0  0  0  0  0  0  0  0
   21.4702   14.2688  -13.0105 C   0  0  0  0  0  0  0  0  0  0  0  0
   21.2034   14.9565  -14.1683 C   0  0  0  0  0  0  0  0  0  0  0  0
   19.8989   15.2281  -14.4981 C   0  0  0  0  0  0  0  0  0  0  0  0
   18.8702   14.8301  -13.7022 C   0  0  0  0  0  0  0  0  0  0  0  0
   19.1381   14.1440  -12.5468 C   0  0  0  0  0  0  0  0  0  0  0  0
   20.0436    9.0514   -9.5600 N   0  0  0  0  0  0  0  0  0  0  0  0
   21.8528    7.8887   -9.4439 N   0  0  0  0  0  0  0  0  0  0  0  0
   21.0086    7.4139   -8.5655 N   0  0  0  0  0  0  0  0  0  0  0  0
   14.4709   13.6064  -11.7675 N   0  0  0  0  0  0  0  0  0  0  0  0
   13.7943   12.4950  -11.8845 N   0  0  0  0  0  0  0  0  0  0  0  0
   20.6671   13.1563  -10.9866 N   0  0  0  0  0  0  0  0  0  0  0  0
   19.5347   16.1046  -15.9705 Cl  0  0  0  0  0  0  0  0  0  0  0  0
  1  2  1  1
  6  1  1  0
  3  2  1  1
  2 13  1  0
  4  3  1  0
  4  5  2  0
  7  4  1  0
  6  5  1  6
  5 23  1  0
  7  8  1  0
  7 28  1  6
  8  9  1  6
  9 10  1  6
 10 23  1  0
 10 24  2  0
 12 11  1  6
 23 11  1  0
 11 25  2  0
 13 14  2  0
 13 15  1  0
 14 26  1  0
 15 27  2  0
 16 26  1  6
 17 18  2  0
 17 22  1  0
 17 28  1  0
 18 19  1  0
 19 20  2  0
 20 21  1  0
 20 29  1  0
 21 22  2  0
 24 25  1  0
 26 27  1  0
M  END
$$$$
