
     RDKit          3D

 29 33  0  0  0  0  0  0  0  0999 V2000
   16.2117    9.9830  -10.7880 C   0  0  0  0  0  0  0  0  0  0  0  0
   16.5535   11.1506  -11.6576 C   0  0  0  0  0  0  0  0  0  0  0  0
   17.9021   11.0610  -12.3498 C   0  0  0  0  0  0  0  0  0  0  0  0
   18.9394   10.6971  -11.3673 C   0  0  0  0  0  0  0  0  0  0  0  0
   18.6515    9.6381  -10.5632 C   0  0  0  0  0  0  0  0  0  0  0  0
   17.3906    9.0050  -10.7779 C   0  0  0  0  0  0  0  0  0  0  0  0
   20.1774   11.5207  -11.4559 C   0  0  1  0  0  0  0  0  0  0  0  0
   21.3459   10.4886  -11.3941 C   0  0  0  0  0  0  0  0  0  0  0  0
   21.7678   10.2518   -9.9996 C   0  0  0  0  0  0  0  0  0  0  0  0
   20.8066    9.3958   -9.2842 C   0  0  0  0  0  0  0  0  0  0  0  0
   18.9866    8.3341   -8.5879 C   0  0  0  0  0  0  0  0  0  0  0  0
   17.6253    7.8437   -8.4381 C   0  0  0  0  0  0  0  0  0  0  0  0
   16.4443   12.4018  -10.8934 C   0  0  0  0  0  0  0  0  0  0  0  0
   15.3086   13.1568  -10.7516 C   0  0  0  0  0  0  0  0  0  0  0  0
   17.4359   13.0358  -10.1939 C   0  0  0  0  0  0  0  0  0  0  0  0
   14.6799   15.2716   -9.5926 C   0  0  0  0  0  0  0  0  0  0  0  0
   20.1979   13.4526  -13.0598 C   0  0  0  0  0  0  0  0  0  0  0  0
   20.6189   14.0276  -14.2406 C   0  0  0  0  0  0  0  0  0  0  0  0
   20.4884   15.3988  -14.4518 C   0  0  0  0  0  0  0  0  0  0  0  0
   19.9383   16.2281  -13.4973 C   0  0  0  0  0  0  0  0  0  0  0  0
   19.5197   15.6481  -12.3197 C   0  0  0  0  0  0  0  0  0  0  0  0
   19.6498   14.2926  -12.1138 C   0  0  0  0  0  0  0  0  0  0  0  0
   19.4874    9.1515   -9.5154 N   0  0  0  0  0  0  0  0  0  0  0  0
   21.1127    8.6886   -8.1667 N   0  0  0  0  0  0  0  0  0  0  0  0
   20.0511    8.0678   -7.7584 N   0  0  0  0  0  0  0  0  0  0  0  0
   15.5963   14.2178   -9.9902 N   0  0  0  0  0  0  0  0  0  0  0  0
   16.8739   14.1516   -9.6511 N   0  0  0  0  0  0  0  0  0  0  0  0
   20.3178   12.0358  -12.8173 N   0  0  0  0  0  0  0  0  0  0  0  0
   19.7815   17.9593  -13.7821 Cl  0  0  0  0  0  0  0  0  0  0  0  0
  2  1  1  0
  6  1  1  0
  3  2  1  0
  2 13  1  0
  4  3  1  0
  4  5  2  0
  7  4  1  0
  5  6  1  0
  5 23  1  0
  7  8  1  0
  7 28  1  6
  8  9  1  0
  9 10  1  0
 10 23  1  0
 10 24  2  0
 11 12  1  0
 23 11  1  0
 11 25  2  0
 13 14  2  0
 13 15  1  0
 14 26  1  0
 15 27  2  0
 26 16  1  0
 17 18  2  0
 17 22  1  0
 17 28  1  0
 18 19  1  0
 19 20  2  0
 20 21  1  0
 20 29  1  0
 21 22  2  0
 24 25  1  0
 26 27  1  0
M  END
$$$$
