
     RDKit          3D

 29 33  0  0  0  0  0  0  0  0999 V2000
   22.8396    9.6863  -12.1021 C   0  0  0  0  0  0  0  0  0  0  0  0
   22.4298   10.9450  -12.7396 C   0  0  0  0  0  0  0  0  0  0  0  0
   20.9783   11.0064  -13.1811 C   0  0  0  0  0  0  0  0  0  0  0  0
   20.2136   10.7094  -11.9948 C   0  0  0  0  0  0  0  0  0  0  0  0
   20.5745    9.5649  -11.3462 C   0  0  0  0  0  0  0  0  0  0  0  0
   21.6587    8.7085  -11.7970 C   0  0  0  0  0  0  0  0  0  0  0  0
   19.1732   11.6310  -11.5056 C   0  0  1  0  0  0  0  0  0  0  0  0
   19.6290   11.9991  -10.0945 C   0  0  0  0  0  0  0  0  0  0  0  0
   19.0483   11.1448   -9.0246 C   0  0  0  0  0  0  0  0  0  0  0  0
   19.2827    9.6892   -9.1932 C   0  0  0  0  0  0  0  0  0  0  0  0
   19.8698    7.6897   -9.9803 C   0  0  0  0  0  0  0  0  0  0  0  0
   20.3892    6.6500  -10.8555 C   0  0  0  0  0  0  0  0  0  0  0  0
   23.2551   11.1583  -13.9719 C   0  0  0  0  0  0  0  0  0  0  0  0
   23.0726   12.1612  -14.8899 C   0  0  0  0  0  0  0  0  0  0  0  0
   24.3099   10.4093  -14.3911 C   0  0  0  0  0  0  0  0  0  0  0  0
   24.1883   12.8303  -16.9948 C   0  0  0  0  0  0  0  0  0  0  0  0
   18.8186   14.0879  -12.1520 C   0  0  0  0  0  0  0  0  0  0  0  0
   17.7416   14.8665  -12.4542 C   0  0  0  0  0  0  0  0  0  0  0  0
   17.7802   16.2234  -12.2493 C   0  0  0  0  0  0  0  0  0  0  0  0
   18.9201   16.7888  -11.7344 C   0  0  0  0  0  0  0  0  0  0  0  0
   20.0075   16.0326  -11.4247 C   0  0  0  0  0  0  0  0  0  0  0  0
   19.9675   14.6785  -11.6299 C   0  0  0  0  0  0  0  0  0  0  0  0
   19.9209    9.0142  -10.1972 N   0  0  0  0  0  0  0  0  0  0  0  0
   18.8431    8.7413   -8.3527 N   0  0  0  0  0  0  0  0  0  0  0  0
   19.1814    7.5612   -8.8031 N   0  0  0  0  0  0  0  0  0  0  0  0
   24.0221   11.9787  -15.8253 N   0  0  0  0  0  0  0  0  0  0  0  0
   24.7639   10.9415  -15.5411 N   0  0  0  0  0  0  0  0  0  0  0  0
   18.8439   12.6864  -12.3489 N   0  0  0  0  0  0  0  0  0  0  0  0
   18.9922   18.5182  -11.4649 Cl  0  0  0  0  0  0  0  0  0  0  0  0
  1  2  1  1
  6  1  1  0
  3  2  1  1
  2 13  1  0
  4  3  1  0
  4  5  2  0
  7  4  1  0
  6  5  1  6
  5 23  1  0
  7  8  1  0
  7 28  1  6
  8  9  1  6
  9 10  1  6
 10 23  1  0
 10 24  2  0
 12 11  1  6
 23 11  1  0
 11 25  2  0
 13 14  2  0
 13 15  1  0
 14 26  1  0
 15 27  2  0
 16 26  1  6
 17 18  2  0
 17 22  1  0
 17 28  1  0
 18 19  1  0
 19 20  2  0
 20 21  1  0
 20 29  1  0
 21 22  2  0
 24 25  1  0
 26 27  1  0
M  END
$$$$
