
     RDKit          3D

 25 27  0  0  0  0  0  0  0  0999 V2000
   29.3017   44.8339   35.1229 O   0  0  0  0  0  0  0  0  0  0  0  0
   28.1843   44.4576   34.7301 C   0  0  0  0  0  0  0  0  0  0  0  0
   27.9722   44.2785   33.2555 C   0  0  0  0  0  0  0  0  0  0  0  0
   27.1097   44.1916   35.6025 N   0  0  0  0  0  0  0  0  0  0  0  0
   27.2389   44.3098   37.0129 C   0  0  0  0  0  0  0  0  0  0  0  0
   26.0687   43.7881   37.7473 C   0  0  0  0  0  0  0  0  0  0  0  0
   24.8492   44.3874   37.8305 C   0  0  0  0  0  0  0  0  0  0  0  0
   23.7698   43.8559   38.5292 C   0  0  0  0  0  0  0  0  0  0  0  0
   23.9381   42.6536   39.1769 C   0  0  0  0  0  0  0  0  0  0  0  0
   22.8710   42.0214   39.9341 C   0  0  0  0  0  0  0  0  0  0  0  0
   21.5585   42.4272   39.8262 C   0  0  0  0  0  0  0  0  0  0  0  0
   20.5317   41.8518   40.5301 C   0  0  0  0  0  0  0  0  0  0  0  0
   19.1206   42.2774   40.4195 C   0  0  1  0  0  0  0  0  0  0  0  0
   18.2845   41.5379   39.4667 C   0  0  0  0  0  0  0  0  0  0  0  0
   18.3512   41.7956   38.0473 N   0  0  0  0  0  0  0  0  0  0  0  0
   17.4733   40.6305   39.8477 N   0  0  0  0  0  4  0  0  0  0  0  0
   18.4241   42.6230   41.6869 C   0  0  0  0  0  0  0  0  0  0  0  0
   17.6771   43.6882   40.8616 C   0  0  0  0  0  0  0  0  0  0  0  0
   19.0119   43.8045   40.1000 C   0  0  0  0  0  0  0  0  0  0  0  0
   20.8415   40.8186   41.3825 C   0  0  0  0  0  0  0  0  0  0  0  0
   22.1606   40.3736   41.5235 C   0  0  0  0  0  0  0  0  0  0  0  0
   22.5975   39.0656   42.5944 Cl  0  0  0  0  0  0  0  0  0  0  0  0
   23.1552   40.9867   40.7930 C   0  0  0  0  0  0  0  0  0  0  0  0
   25.1560   42.0333   39.1066 C   0  0  0  0  0  0  0  0  0  0  0  0
   26.2070   42.5664   38.4171 C   0  0  0  0  0  0  0  0  0  0  0  0
  1  2  2  0
  3  2  1  1
  2  4  1  0
  5  4  1  6
  5  6  1  0
  6 25  2  0
  6  7  1  0
  7  8  2  0
  8  9  1  0
  9 10  1  0
  9 24  2  0
 10 23  1  0
 10 11  2  0
 11 12  1  0
 13 12  1  1
 12 20  2  0
 13 19  1  0
 13 14  1  0
 17 13  1  6
 14 15  1  0
 14 16  2  3
 18 17  1  6
 19 18  1  1
 20 21  1  0
 21 22  1  0
 21 23  2  0
 24 25  1  0
M  CHG  1  16   1
M  END
$$$$
