
     RDKit          3D

 25 27  0  0  0  0  0  0  0  0999 V2000
    6.8747   52.8418   67.6029 O   0  0  0  0  0  0  0  0  0  0  0  0
    7.0831   51.9347   68.4264 C   0  0  0  0  0  0  0  0  0  0  0  0
    6.7281   52.1830   69.8629 C   0  0  0  0  0  0  0  0  0  0  0  0
    7.6357   50.6866   68.0751 N   0  0  0  0  0  0  0  0  0  0  0  0
    7.9756   50.3653   66.7331 C   0  0  0  0  0  0  0  0  0  0  0  0
    8.7705   49.1261   66.6178 C   0  0  0  0  0  0  0  0  0  0  0  0
    9.0218   48.2450   67.6246 C   0  0  0  0  0  0  0  0  0  0  0  0
    9.7717   47.0834   67.4697 C   0  0  0  0  0  0  0  0  0  0  0  0
   10.2935   46.8025   66.2278 C   0  0  0  0  0  0  0  0  0  0  0  0
   11.0916   45.6160   65.9691 C   0  0  0  0  0  0  0  0  0  0  0  0
   11.4623   45.2481   64.6939 C   0  0  0  0  0  0  0  0  0  0  0  0
   12.2120   44.1329   64.4196 C   0  0  0  0  0  0  0  0  0  0  0  0
   12.6175   43.7311   63.0561 C   0  0  1  0  0  0  0  0  0  0  0  0
   14.0419   43.4426   62.8530 C   0  0  0  0  0  0  0  0  0  0  0  0
   15.0688   44.3238   63.3573 N   0  0  0  0  0  0  0  0  0  0  0  0
   14.4346   42.3989   62.2340 N   0  0  0  0  0  4  0  0  0  0  0  0
   11.7080   42.8030   62.3334 C   0  0  0  0  0  0  0  0  0  0  0  0
   12.1178   43.5644   61.0581 C   0  0  0  0  0  0  0  0  0  0  0  0
   12.1647   44.7871   61.9951 C   0  0  0  0  0  0  0  0  0  0  0  0
   12.6073   43.3519   65.4797 C   0  0  0  0  0  0  0  0  0  0  0  0
   12.2538   43.6875   66.7913 C   0  0  0  0  0  0  0  0  0  0  0  0
   12.7344   42.7237   68.1657 Cl  0  0  0  0  0  0  0  0  0  0  0  0
   11.4988   44.8188   67.0120 C   0  0  0  0  0  0  0  0  0  0  0  0
   10.0534   47.6746   65.2008 C   0  0  0  0  0  0  0  0  0  0  0  0
    9.3154   48.8113   65.3670 C   0  0  0  0  0  0  0  0  0  0  0  0
  1  2  2  0
  3  2  1  1
  2  4  1  0
  5  4  1  6
  5  6  1  0
  6 25  2  0
  6  7  1  0
  7  8  2  0
  8  9  1  0
  9 10  1  0
  9 24  2  0
 10 23  1  0
 10 11  2  0
 11 12  1  0
 13 12  1  1
 12 20  2  0
 13 19  1  0
 13 14  1  0
 17 13  1  6
 14 15  1  0
 14 16  2  3
 18 17  1  6
 19 18  1  1
 20 21  1  0
 21 22  1  0
 21 23  2  0
 24 25  1  0
M  CHG  1  16   1
M  END
$$$$
