
     RDKit          3D

 25 27  0  0  0  0  0  0  0  0999 V2000
   33.2926   41.4432   64.4936 O   0  0  0  0  0  0  0  0  0  0  0  0
   33.0523   40.4898   65.2536 C   0  0  0  0  0  0  0  0  0  0  0  0
   34.1742   39.9457   66.0883 C   0  0  0  0  0  0  0  0  0  0  0  0
   31.7787   39.8971   65.3681 N   0  0  0  0  0  0  0  0  0  0  0  0
   30.6184   40.4926   64.8034 C   0  0  0  0  0  0  0  0  0  0  0  0
   29.3991   40.2567   65.6024 C   0  0  0  0  0  0  0  0  0  0  0  0
   28.4903   39.2648   65.3939 C   0  0  0  0  0  0  0  0  0  0  0  0
   27.3564   39.0744   66.1772 C   0  0  0  0  0  0  0  0  0  0  0  0
   27.1342   39.9364   67.2266 C   0  0  0  0  0  0  0  0  0  0  0  0
   25.9772   39.8196   68.0981 C   0  0  0  0  0  0  0  0  0  0  0  0
   26.0970   39.7759   69.4702 C   0  0  0  0  0  0  0  0  0  0  0  0
   25.0240   39.6631   70.3169 C   0  0  0  0  0  0  0  0  0  0  0  0
   25.1413   39.6184   71.7896 C   0  0  1  0  0  0  0  0  0  0  0  0
   25.3376   40.9028   72.4719 C   0  0  0  0  0  0  0  0  0  0  0  0
   24.2223   41.6580   72.9925 N   0  0  0  0  0  0  0  0  0  0  0  0
   26.4988   41.4014   72.6445 N   0  0  0  0  0  4  0  0  0  0  0  0
   24.2256   38.6918   72.5064 C   0  0  0  0  0  0  0  0  0  0  0  0
   25.3892   38.4750   73.4928 C   0  0  0  0  0  0  0  0  0  0  0  0
   26.2714   38.6353   72.2393 C   0  0  0  0  0  0  0  0  0  0  0  0
   23.7713   39.5915   69.7550 C   0  0  0  0  0  0  0  0  0  0  0  0
   23.6026   39.6322   68.3665 C   0  0  0  0  0  0  0  0  0  0  0  0
   22.0305   39.5439   67.6119 Cl  0  0  0  0  0  0  0  0  0  0  0  0
   24.7145   39.7460   67.5605 C   0  0  0  0  0  0  0  0  0  0  0  0
   28.0350   40.9411   67.4547 C   0  0  0  0  0  0  0  0  0  0  0  0
   29.1440   41.1164   66.6777 C   0  0  0  0  0  0  0  0  0  0  0  0
  1  2  2  0
  3  2  1  1
  2  4  1  0
  5  4  1  6
  5  6  1  0
  6 25  2  0
  6  7  1  0
  7  8  2  0
  8  9  1  0
  9 10  1  0
  9 24  2  0
 10 23  1  0
 10 11  2  0
 11 12  1  0
 13 12  1  6
 12 20  2  0
 13 19  1  0
 13 14  1  0
 17 13  1  6
 14 15  1  0
 14 16  2  3
 18 17  1  6
 19 18  1  1
 20 21  1  0
 21 22  1  0
 21 23  2  0
 24 25  1  0
M  CHG  1  16   1
M  END
$$$$
