
     RDKit          3D

 25 27  0  0  0  0  0  0  0  0999 V2000
   11.6553   54.6429   68.3486 O   0  0  0  0  0  0  0  0  0  0  0  0
   12.8630   54.5978   68.0590 C   0  0  0  0  0  0  0  0  0  0  0  0
   13.4182   55.6611   67.1575 C   0  0  0  0  0  0  0  0  0  0  0  0
   13.7335   53.5975   68.5366 N   0  0  0  0  0  0  0  0  0  0  0  0
   13.2611   52.4795   69.2760 C   0  0  0  0  0  0  0  0  0  0  0  0
   13.3538   51.2095   68.5282 C   0  0  0  0  0  0  0  0  0  0  0  0
   14.3847   50.8336   67.7225 C   0  0  0  0  0  0  0  0  0  0  0  0
   14.4344   49.6219   67.0407 C   0  0  0  0  0  0  0  0  0  0  0  0
   13.3822   48.7468   67.1848 C   0  0  0  0  0  0  0  0  0  0  0  0
   13.3423   47.4599   66.5110 C   0  0  0  0  0  0  0  0  0  0  0  0
   12.1700   46.9282   66.0192 C   0  0  0  0  0  0  0  0  0  0  0  0
   12.1017   45.7156   65.3821 C   0  0  0  0  0  0  0  0  0  0  0  0
   10.8503   45.1378   64.8485 C   0  0  1  0  0  0  0  0  0  0  0  0
   10.4752   43.8097   65.3475 C   0  0  0  0  0  0  0  0  0  0  0  0
    9.5798   43.6513   66.4694 N   0  0  0  0  0  0  0  0  0  0  0  0
   10.9129   42.7404   64.8073 N   0  0  0  0  0  4  0  0  0  0  0  0
    9.6996   46.0656   64.6877 C   0  0  0  0  0  0  0  0  0  0  0  0
    9.3375   45.2313   63.4440 C   0  0  0  0  0  0  0  0  0  0  0  0
   10.8647   45.0988   63.2851 C   0  0  0  0  0  0  0  0  0  0  0  0
   13.2694   45.0054   65.2329 C   0  0  0  0  0  0  0  0  0  0  0  0
   14.4828   45.5069   65.7166 C   0  0  0  0  0  0  0  0  0  0  0  0
   15.9880   44.6379   65.5485 Cl  0  0  0  0  0  0  0  0  0  0  0  0
   14.4962   46.7307   66.3496 C   0  0  0  0  0  0  0  0  0  0  0  0
   12.3349   49.1042   67.9900 C   0  0  0  0  0  0  0  0  0  0  0  0
   12.2993   50.2970   68.6534 C   0  0  0  0  0  0  0  0  0  0  0  0
  1  2  2  0
  3  2  1  1
  2  4  1  0
  5  4  1  6
  5  6  1  0
  6 25  2  0
  6  7  1  0
  7  8  2  0
  8  9  1  0
  9 10  1  0
  9 24  2  0
 10 23  1  0
 10 11  2  0
 11 12  1  0
 13 12  1  1
 12 20  2  0
 13 19  1  0
 13 14  1  0
 17 13  1  6
 14 15  1  0
 14 16  2  3
 18 17  1  6
 19 18  1  1
 20 21  1  0
 21 22  1  0
 21 23  2  0
 24 25  1  0
M  CHG  1  16   1
M  END
$$$$
