
     RDKit          3D

 25 27  0  0  0  0  0  0  0  0999 V2000
   33.8652   37.0370   64.8830 O   0  0  0  0  0  0  0  0  0  0  0  0
   33.5135   36.8858   66.0654 C   0  0  0  0  0  0  0  0  0  0  0  0
   34.5718   36.6064   67.0917 C   0  0  0  0  0  0  0  0  0  0  0  0
   32.1708   36.9647   66.4865 N   0  0  0  0  0  0  0  0  0  0  0  0
   31.1218   37.3146   65.5938 C   0  0  0  0  0  0  0  0  0  0  0  0
   29.8922   37.7488   66.2868 C   0  0  0  0  0  0  0  0  0  0  0  0
   29.3537   37.1656   67.3928 C   0  0  0  0  0  0  0  0  0  0  0  0
   28.1946   37.6128   68.0190 C   0  0  0  0  0  0  0  0  0  0  0  0
   27.5491   38.7091   67.4945 C   0  0  0  0  0  0  0  0  0  0  0  0
   26.3314   39.2476   68.0766 C   0  0  0  0  0  0  0  0  0  0  0  0
   26.2505   39.6000   69.4063 C   0  0  0  0  0  0  0  0  0  0  0  0
   25.1145   40.1074   69.9834 C   0  0  0  0  0  0  0  0  0  0  0  0
   25.0181   40.4913   71.4075 C   0  0  1  0  0  0  0  0  0  0  0  0
   25.8263   41.6395   71.8341 C   0  0  0  0  0  0  0  0  0  0  0  0
   27.0001   41.4705   72.6581 N   0  0  0  0  0  0  0  0  0  0  0  0
   25.5350   42.8320   71.4878 N   0  0  0  0  0  4  0  0  0  0  0  0
   23.6651   40.4479   72.0226 C   0  0  0  0  0  0  0  0  0  0  0  0
   24.3822   40.0064   73.3128 C   0  0  0  0  0  0  0  0  0  0  0  0
   25.3361   39.2801   72.3444 C   0  0  0  0  0  0  0  0  0  0  0  0
   24.0081   40.2677   69.1833 C   0  0  0  0  0  0  0  0  0  0  0  0
   24.0450   39.9232   67.8277 C   0  0  0  0  0  0  0  0  0  0  0  0
   22.6633   40.1104   66.7766 Cl  0  0  0  0  0  0  0  0  0  0  0  0
   25.2119   39.4171   67.2975 C   0  0  0  0  0  0  0  0  0  0  0  0
   28.0729   39.3113   66.3827 C   0  0  0  0  0  0  0  0  0  0  0  0
   29.2116   38.8616   65.7781 C   0  0  0  0  0  0  0  0  0  0  0  0
  1  2  2  0
  3  2  1  1
  2  4  1  0
  5  4  1  6
  5  6  1  0
  6 25  2  0
  6  7  1  0
  7  8  2  0
  8  9  1  0
  9 10  1  0
  9 24  2  0
 10 23  1  0
 10 11  2  0
 11 12  1  0
 13 12  1  6
 12 20  2  0
 13 19  1  0
 13 14  1  0
 17 13  1  6
 14 15  1  0
 14 16  2  3
 18 17  1  6
 19 18  1  1
 20 21  1  0
 21 22  1  0
 21 23  2  0
 24 25  1  0
M  CHG  1  16   1
M  END
$$$$
