
     RDKit          3D

 25 27  0  0  0  0  0  0  0  0999 V2000
   28.5068   41.6291   71.0816 O   0  0  0  0  0  0  0  0  0  0  0  0
   27.5259   41.2444   70.4227 C   0  0  0  0  0  0  0  0  0  0  0  0
   27.7340   40.8877   68.9801 C   0  0  0  0  0  0  0  0  0  0  0  0
   26.2304   41.1274   70.9654 N   0  0  0  0  0  0  0  0  0  0  0  0
   25.9534   41.4371   72.3245 C   0  0  0  0  0  0  0  0  0  0  0  0
   24.5157   41.3641   72.6537 C   0  0  0  0  0  0  0  0  0  0  0  0
   23.8636   42.1529   73.5513 C   0  0  0  0  0  0  0  0  0  0  0  0
   22.5033   42.0544   73.8261 C   0  0  0  0  0  0  0  0  0  0  0  0
   21.7675   41.1052   73.1544 C   0  0  0  0  0  0  0  0  0  0  0  0
   20.3426   40.9248   73.3757 C   0  0  0  0  0  0  0  0  0  0  0  0
   19.7631   41.1274   74.6094 C   0  0  0  0  0  0  0  0  0  0  0  0
   18.4227   40.9620   74.8484 C   0  0  0  0  0  0  0  0  0  0  0  0
   17.7908   41.1795   76.1667 C   0  0  1  0  0  0  0  0  0  0  0  0
   18.1193   40.2119   77.2200 C   0  0  0  0  0  0  0  0  0  0  0  0
   17.5791   38.8727   77.2085 N   0  0  0  0  0  0  0  0  0  0  0  0
   18.9027   40.5064   78.1825 N   0  0  0  0  0  4  0  0  0  0  0  0
   17.7093   42.5845   76.6466 C   0  0  0  0  0  0  0  0  0  0  0  0
   16.3665   42.1772   77.2829 C   0  0  0  0  0  0  0  0  0  0  0  0
   16.2347   41.2734   76.0415 C   0  0  0  0  0  0  0  0  0  0  0  0
   17.6288   40.5747   73.7950 C   0  0  0  0  0  0  0  0  0  0  0  0
   18.1745   40.3578   72.5249 C   0  0  0  0  0  0  0  0  0  0  0  0
   17.2027   39.8654   71.1604 Cl  0  0  0  0  0  0  0  0  0  0  0  0
   19.5279   40.5379   72.3387 C   0  0  0  0  0  0  0  0  0  0  0  0
   22.4027   40.3010   72.2473 C   0  0  0  0  0  0  0  0  0  0  0  0
   23.7387   40.4087   71.9874 C   0  0  0  0  0  0  0  0  0  0  0  0
  1  2  2  0
  3  2  1  1
  2  4  1  0
  5  4  1  6
  5  6  1  0
  6 25  2  0
  6  7  1  0
  7  8  2  0
  8  9  1  0
  9 10  1  0
  9 24  2  0
 10 23  1  0
 10 11  2  0
 11 12  1  0
 13 12  1  6
 12 20  2  0
 13 19  1  0
 13 14  1  0
 17 13  1  6
 14 15  1  0
 14 16  2  3
 18 17  1  6
 19 18  1  1
 20 21  1  0
 21 22  1  0
 21 23  2  0
 24 25  1  0
M  CHG  1  16   1
M  END
$$$$
