
     RDKit          3D

 25 27  0  0  0  0  0  0  0  0999 V2000
   47.6338   32.6919   51.8935 O   0  0  0  0  0  0  0  0  0  0  0  0
   47.6411   31.9892   52.9185 C   0  0  0  0  0  0  0  0  0  0  0  0
   48.9599   31.4823   53.4236 C   0  0  0  0  0  0  0  0  0  0  0  0
   46.4718   31.6471   53.6272 N   0  0  0  0  0  0  0  0  0  0  0  0
   45.1752   31.8503   53.0819 C   0  0  0  0  0  0  0  0  0  0  0  0
   44.5848   30.6198   52.5180 C   0  0  0  0  0  0  0  0  0  0  0  0
   44.5671   29.3980   53.1181 C   0  0  0  0  0  0  0  0  0  0  0  0
   43.9924   28.2642   52.5526 C   0  0  0  0  0  0  0  0  0  0  0  0
   43.4053   28.3775   51.3132 C   0  0  0  0  0  0  0  0  0  0  0  0
   42.7826   27.2496   50.6410 C   0  0  0  0  0  0  0  0  0  0  0  0
   41.9313   26.3870   51.2967 C   0  0  0  0  0  0  0  0  0  0  0  0
   41.3319   25.3134   50.6892 C   0  0  0  0  0  0  0  0  0  0  0  0
   40.4151   24.3841   51.3825 C   0  0  1  0  0  0  0  0  0  0  0  0
   39.0477   24.2966   50.8569 C   0  0  0  0  0  0  0  0  0  0  0  0
   38.1198   25.3958   50.9836 N   0  0  0  0  0  0  0  0  0  0  0  0
   38.6237   23.2539   50.2571 N   0  0  0  0  0  4  0  0  0  0  0  0
   40.9809   23.0752   51.8040 C   0  0  0  0  0  0  0  0  0  0  0  0
   40.0486   23.1859   53.0256 C   0  0  0  0  0  0  0  0  0  0  0  0
   40.3434   24.6945   52.9136 C   0  0  0  0  0  0  0  0  0  0  0  0
   41.6025   25.0988   49.3585 C   0  0  0  0  0  0  0  0  0  0  0  0
   42.4608   25.9494   48.6531 C   0  0  0  0  0  0  0  0  0  0  0  0
   42.8315   25.7131   46.9632 Cl  0  0  0  0  0  0  0  0  0  0  0  0
   43.0374   27.0139   49.3111 C   0  0  0  0  0  0  0  0  0  0  0  0
   43.4115   29.5966   50.6913 C   0  0  0  0  0  0  0  0  0  0  0  0
   43.9794   30.7013   51.2582 C   0  0  0  0  0  0  0  0  0  0  0  0
  1  2  2  0
  3  2  1  1
  2  4  1  0
  5  4  1  6
  5  6  1  0
  6 25  2  0
  6  7  1  0
  7  8  2  0
  8  9  1  0
  9 10  1  0
  9 24  2  0
 10 23  1  0
 10 11  2  0
 11 12  1  0
 13 12  1  6
 12 20  2  0
 13 19  1  0
 13 14  1  0
 17 13  1  6
 14 15  1  0
 14 16  2  3
 18 17  1  6
 19 18  1  1
 20 21  1  0
 21 22  1  0
 21 23  2  0
 24 25  1  0
M  CHG  1  16   1
M  END
$$$$
