
     RDKit          3D

 25 27  0  0  0  0  0  0  0  0999 V2000
   11.8829   54.9111   69.2535 O   0  0  0  0  0  0  0  0  0  0  0  0
   10.8676   54.2089   69.1104 C   0  0  0  0  0  0  0  0  0  0  0  0
    9.5257   54.8505   69.3083 C   0  0  0  0  0  0  0  0  0  0  0  0
   10.9172   52.8417   68.7716 N   0  0  0  0  0  0  0  0  0  0  0  0
   12.1454   52.1746   68.5139 C   0  0  0  0  0  0  0  0  0  0  0  0
   11.9717   50.7418   68.2014 C   0  0  0  0  0  0  0  0  0  0  0  0
   11.5896   49.7758   69.0812 C   0  0  0  0  0  0  0  0  0  0  0  0
   11.4313   48.4360   68.7415 C   0  0  0  0  0  0  0  0  0  0  0  0
   11.6738   48.0579   67.4408 C   0  0  0  0  0  0  0  0  0  0  0  0
   11.5383   46.6825   66.9919 C   0  0  0  0  0  0  0  0  0  0  0  0
   11.7950   46.3096   65.6904 C   0  0  0  0  0  0  0  0  0  0  0  0
   11.6728   45.0207   65.2380 C   0  0  0  0  0  0  0  0  0  0  0  0
   11.9485   44.6098   63.8451 C   0  0  1  0  0  0  0  0  0  0  0  0
   10.9769   45.0346   62.8307 C   0  0  0  0  0  0  0  0  0  0  0  0
   10.9391   46.3943   62.3460 N   0  0  0  0  0  0  0  0  0  0  0  0
   10.1335   44.2218   62.3260 N   0  0  0  0  0  4  0  0  0  0  0  0
   13.3625   44.6872   63.3916 C   0  0  0  0  0  0  0  0  0  0  0  0
   13.0503   43.4339   62.5516 C   0  0  0  0  0  0  0  0  0  0  0  0
   12.1392   43.0613   63.7376 C   0  0  0  0  0  0  0  0  0  0  0  0
   11.2737   44.0622   66.1391 C   0  0  0  0  0  0  0  0  0  0  0  0
   11.0024   44.3956   67.4706 C   0  0  0  0  0  0  0  0  0  0  0  0
   10.4930   43.2101   68.6470 Cl  0  0  0  0  0  0  0  0  0  0  0  0
   11.1405   45.7061   67.8736 C   0  0  0  0  0  0  0  0  0  0  0  0
   12.0591   49.0127   66.5392 C   0  0  0  0  0  0  0  0  0  0  0  0
   12.2107   50.3245   66.8864 C   0  0  0  0  0  0  0  0  0  0  0  0
  1  2  2  0
  3  2  1  1
  2  4  1  0
  5  4  1  6
  5  6  1  0
  6 25  2  0
  6  7  1  0
  7  8  2  0
  8  9  1  0
  9 10  1  0
  9 24  2  0
 10 23  1  0
 10 11  2  0
 11 12  1  0
 13 12  1  1
 12 20  2  0
 13 19  1  0
 13 14  1  0
 17 13  1  6
 14 15  1  0
 14 16  2  3
 18 17  1  6
 19 18  1  1
 20 21  1  0
 21 22  1  0
 21 23  2  0
 24 25  1  0
M  CHG  1  16   1
M  END
$$$$
