
     RDKit          3D

 25 27  0  0  0  0  0  0  0  0999 V2000
   23.9221   48.6760   39.1658 O   0  0  0  0  0  0  0  0  0  0  0  0
   24.4441   49.6034   39.8076 C   0  0  0  0  0  0  0  0  0  0  0  0
   24.6500   50.9189   39.1159 C   0  0  0  0  0  0  0  0  0  0  0  0
   24.8505   49.4780   41.1513 N   0  0  0  0  0  0  0  0  0  0  0  0
   24.7403   48.2505   41.8591 C   0  0  0  0  0  0  0  0  0  0  0  0
   25.7583   48.0992   42.9181 C   0  0  0  0  0  0  0  0  0  0  0  0
   25.6628   47.2828   44.0033 C   0  0  0  0  0  0  0  0  0  0  0  0
   26.6512   47.1659   44.9754 C   0  0  0  0  0  0  0  0  0  0  0  0
   27.7958   47.9172   44.8380 C   0  0  0  0  0  0  0  0  0  0  0  0
   28.8814   47.8651   45.8026 C   0  0  0  0  0  0  0  0  0  0  0  0
   29.4431   49.0060   46.3334 C   0  0  0  0  0  0  0  0  0  0  0  0
   30.4698   48.9875   47.2425 C   0  0  0  0  0  0  0  0  0  0  0  0
   31.0772   50.2050   47.8200 C   0  0  1  0  0  0  0  0  0  0  0  0
   31.1463   51.3821   46.9463 C   0  0  0  0  0  0  0  0  0  0  0  0
   30.1386   52.4154   46.9927 N   0  0  0  0  0  0  0  0  0  0  0  0
   32.1020   51.5493   46.1185 N   0  0  0  0  0  4  0  0  0  0  0  0
   30.7276   50.5236   49.2297 C   0  0  0  0  0  0  0  0  0  0  0  0
   32.1665   51.0603   49.3535 C   0  0  0  0  0  0  0  0  0  0  0  0
   32.5076   49.9141   48.3813 C   0  0  0  0  0  0  0  0  0  0  0  0
   30.9532   47.7621   47.6357 C   0  0  0  0  0  0  0  0  0  0  0  0
   30.4130   46.5776   47.1228 C   0  0  0  0  0  0  0  0  0  0  0  0
   30.9970   45.0013   47.5949 Cl  0  0  0  0  0  0  0  0  0  0  0  0
   29.3822   46.6522   46.2114 C   0  0  0  0  0  0  0  0  0  0  0  0
   27.9132   48.7450   43.7546 C   0  0  0  0  0  0  0  0  0  0  0  0
   26.9350   48.8500   42.8078 C   0  0  0  0  0  0  0  0  0  0  0  0
  1  2  2  0
  3  2  1  1
  2  4  1  0
  5  4  1  6
  5  6  1  0
  6 25  2  0
  6  7  1  0
  7  8  2  0
  8  9  1  0
  9 10  1  0
  9 24  2  0
 10 23  1  0
 10 11  2  0
 11 12  1  0
 13 12  1  6
 12 20  2  0
 13 19  1  0
 13 14  1  0
 17 13  1  6
 14 15  1  0
 14 16  2  3
 18 17  1  6
 19 18  1  1
 20 21  1  0
 21 22  1  0
 21 23  2  0
 24 25  1  0
M  CHG  1  16   1
M  END
$$$$
