
     RDKit          3D

 25 27  0  0  0  0  0  0  0  0999 V2000
   28.4537   28.1794   63.3595 O   0  0  0  0  0  0  0  0  0  0  0  0
   27.9988   27.0329   63.2080 C   0  0  0  0  0  0  0  0  0  0  0  0
   28.5827   25.9219   64.0303 C   0  0  0  0  0  0  0  0  0  0  0  0
   26.9626   26.7279   62.3026 N   0  0  0  0  0  0  0  0  0  0  0  0
   26.5894   27.6177   61.2591 C   0  0  0  0  0  0  0  0  0  0  0  0
   27.2052   27.2782   59.9606 C   0  0  0  0  0  0  0  0  0  0  0  0
   27.0003   26.1301   59.2583 C   0  0  0  0  0  0  0  0  0  0  0  0
   27.5971   25.8538   58.0323 C   0  0  0  0  0  0  0  0  0  0  0  0
   28.4461   26.7922   57.4918 C   0  0  0  0  0  0  0  0  0  0  0  0
   29.1178   26.5925   56.2188 C   0  0  0  0  0  0  0  0  0  0  0  0
   29.8989   25.4848   55.9702 C   0  0  0  0  0  0  0  0  0  0  0  0
   30.5468   25.2715   54.7804 C   0  0  0  0  0  0  0  0  0  0  0  0
   31.3842   24.0856   54.5026 C   0  0  1  0  0  0  0  0  0  0  0  0
   30.7461   22.9895   53.7643 C   0  0  0  0  0  0  0  0  0  0  0  0
   29.9905   21.9631   54.4431 N   0  0  0  0  0  0  0  0  0  0  0  0
   30.8209   22.9018   52.4941 N   0  0  0  0  0  4  0  0  0  0  0  0
   32.7929   24.3400   54.1003 C   0  0  0  0  0  0  0  0  0  0  0  0
   33.1345   23.0519   54.8735 C   0  0  0  0  0  0  0  0  0  0  0  0
   32.0047   23.5086   55.8171 C   0  0  0  0  0  0  0  0  0  0  0  0
   30.4006   26.2183   53.7944 C   0  0  0  0  0  0  0  0  0  0  0  0
   29.6171   27.3586   54.0030 C   0  0  0  0  0  0  0  0  0  0  0  0
   29.4051   28.5852   52.7785 Cl  0  0  0  0  0  0  0  0  0  0  0  0
   28.9875   27.5248   55.2174 C   0  0  0  0  0  0  0  0  0  0  0  0
   28.6667   27.9539   58.1807 C   0  0  0  0  0  0  0  0  0  0  0  0
   28.0742   28.2122   59.3835 C   0  0  0  0  0  0  0  0  0  0  0  0
  1  2  2  0
  3  2  1  1
  2  4  1  0
  5  4  1  6
  5  6  1  0
  6 25  2  0
  6  7  1  0
  7  8  2  0
  8  9  1  0
  9 10  1  0
  9 24  2  0
 10 23  1  0
 10 11  2  0
 11 12  1  0
 13 12  1  1
 12 20  2  0
 13 19  1  0
 13 14  1  0
 17 13  1  6
 14 15  1  0
 14 16  2  3
 18 17  1  6
 19 18  1  1
 20 21  1  0
 21 22  1  0
 21 23  2  0
 24 25  1  0
M  CHG  1  16   1
M  END
$$$$
