
     RDKit          3D

 25 27  0  0  0  0  0  0  0  0999 V2000
   17.5570   43.5394   46.8800 O   0  0  0  0  0  0  0  0  0  0  0  0
   16.5029   42.8884   46.9782 C   0  0  0  0  0  0  0  0  0  0  0  0
   16.1384   41.9532   45.8629 C   0  0  0  0  0  0  0  0  0  0  0  0
   15.6363   42.9869   48.0853 N   0  0  0  0  0  0  0  0  0  0  0  0
   15.9467   43.7923   49.2143 C   0  0  0  0  0  0  0  0  0  0  0  0
   16.1922   43.0036   50.4385 C   0  0  0  0  0  0  0  0  0  0  0  0
   16.7474   41.7616   50.4872 C   0  0  0  0  0  0  0  0  0  0  0  0
   16.9674   41.0560   51.6659 C   0  0  0  0  0  0  0  0  0  0  0  0
   16.6044   41.6423   52.8567 C   0  0  0  0  0  0  0  0  0  0  0  0
   16.7918   40.9828   54.1379 C   0  0  0  0  0  0  0  0  0  0  0  0
   15.9150   41.1594   55.1862 C   0  0  0  0  0  0  0  0  0  0  0  0
   16.0679   40.5528   56.4067 C   0  0  0  0  0  0  0  0  0  0  0  0
   15.1319   40.7331   57.5363 C   0  0  1  0  0  0  0  0  0  0  0  0
   13.7918   40.1566   57.3769 C   0  0  0  0  0  0  0  0  0  0  0  0
   13.5247   38.7723   57.6895 N   0  0  0  0  0  0  0  0  0  0  0  0
   12.8049   40.8531   56.9675 N   0  0  0  0  0  4  0  0  0  0  0  0
   15.6943   40.5756   58.9036 C   0  0  0  0  0  0  0  0  0  0  0  0
   14.7046   41.6795   59.3227 C   0  0  0  0  0  0  0  0  0  0  0  0
   14.9848   42.2431   57.9159 C   0  0  0  0  0  0  0  0  0  0  0  0
   17.1551   39.7292   56.5792 C   0  0  0  0  0  0  0  0  0  0  0  0
   18.0711   39.5208   55.5422 C   0  0  0  0  0  0  0  0  0  0  0  0
   19.4646   38.4837   55.7189 Cl  0  0  0  0  0  0  0  0  0  0  0  0
   17.8710   40.1549   54.3352 C   0  0  0  0  0  0  0  0  0  0  0  0
   16.0443   42.8908   52.8313 C   0  0  0  0  0  0  0  0  0  0  0  0
   15.8341   43.5721   51.6669 C   0  0  0  0  0  0  0  0  0  0  0  0
  1  2  2  0
  3  2  1  1
  2  4  1  0
  5  4  1  6
  5  6  1  0
  6 25  2  0
  6  7  1  0
  7  8  2  0
  8  9  1  0
  9 10  1  0
  9 24  2  0
 10 23  1  0
 10 11  2  0
 11 12  1  0
 13 12  1  6
 12 20  2  0
 13 19  1  0
 13 14  1  0
 17 13  1  6
 14 15  1  0
 14 16  2  3
 18 17  1  6
 19 18  1  1
 20 21  1  0
 21 22  1  0
 21 23  2  0
 24 25  1  0
M  CHG  1  16   1
M  END
$$$$
