
     RDKit          3D

 25 27  0  0  0  0  0  0  0  0999 V2000
   21.3865   39.0150   61.2138 O   0  0  0  0  0  0  0  0  0  0  0  0
   20.6990   38.2838   60.4810 C   0  0  0  0  0  0  0  0  0  0  0  0
   20.0764   37.0581   61.0824 C   0  0  0  0  0  0  0  0  0  0  0  0
   20.4769   38.5511   59.1151 N   0  0  0  0  0  0  0  0  0  0  0  0
   20.6443   39.8512   58.5661 C   0  0  0  0  0  0  0  0  0  0  0  0
   19.4632   40.3183   57.8129 C   0  0  0  0  0  0  0  0  0  0  0  0
   18.3662   40.9223   58.3469 C   0  0  0  0  0  0  0  0  0  0  0  0
   17.2763   41.3538   57.5975 C   0  0  0  0  0  0  0  0  0  0  0  0
   17.3020   41.1616   56.2352 C   0  0  0  0  0  0  0  0  0  0  0  0
   16.2102   41.5753   55.3701 C   0  0  0  0  0  0  0  0  0  0  0  0
   16.1966   41.2889   54.0223 C   0  0  0  0  0  0  0  0  0  0  0  0
   15.1819   41.6689   53.1815 C   0  0  0  0  0  0  0  0  0  0  0  0
   15.1562   41.3642   51.7354 C   0  0  1  0  0  0  0  0  0  0  0  0
   14.6305   40.0492   51.3507 C   0  0  0  0  0  0  0  0  0  0  0  0
   13.2625   39.8810   50.9199 N   0  0  0  0  0  0  0  0  0  0  0  0
   15.3592   39.0026   51.3690 N   0  0  0  0  0  4  0  0  0  0  0  0
   14.7421   42.4655   50.8263 C   0  0  0  0  0  0  0  0  0  0  0  0
   15.7567   41.8786   49.8263 C   0  0  0  0  0  0  0  0  0  0  0  0
   16.5702   41.5452   51.0921 C   0  0  0  0  0  0  0  0  0  0  0  0
   14.1312   42.3701   53.7240 C   0  0  0  0  0  0  0  0  0  0  0  0
   14.1032   42.6829   55.0876 C   0  0  0  0  0  0  0  0  0  0  0  0
   12.7889   43.5714   55.8170 Cl  0  0  0  0  0  0  0  0  0  0  0  0
   15.1486   42.2776   55.8886 C   0  0  0  0  0  0  0  0  0  0  0  0
   18.3950   40.5562   55.6768 C   0  0  0  0  0  0  0  0  0  0  0  0
   19.4581   40.1375   56.4244 C   0  0  0  0  0  0  0  0  0  0  0  0
  1  2  2  0
  3  2  1  1
  2  4  1  0
  5  4  1  6
  5  6  1  0
  6 25  2  0
  6  7  1  0
  7  8  2  0
  8  9  1  0
  9 10  1  0
  9 24  2  0
 10 23  1  0
 10 11  2  0
 11 12  1  0
 13 12  1  1
 12 20  2  0
 13 19  1  0
 13 14  1  0
 17 13  1  6
 14 15  1  0
 14 16  2  3
 18 17  1  6
 19 18  1  1
 20 21  1  0
 21 22  1  0
 21 23  2  0
 24 25  1  0
M  CHG  1  16   1
M  END
$$$$
