
     RDKit          3D

 25 27  0  0  0  0  0  0  0  0999 V2000
   31.6097   52.1493   53.0030 O   0  0  0  0  0  0  0  0  0  0  0  0
   31.5002   53.0205   52.1235 C   0  0  0  0  0  0  0  0  0  0  0  0
   32.6216   54.0027   51.9522 C   0  0  0  0  0  0  0  0  0  0  0  0
   30.3753   53.1288   51.2813 N   0  0  0  0  0  0  0  0  0  0  0  0
   29.3426   52.1525   51.2763 C   0  0  0  0  0  0  0  0  0  0  0  0
   29.3517   51.3060   50.0664 C   0  0  0  0  0  0  0  0  0  0  0  0
   29.6966   51.7118   48.8135 C   0  0  0  0  0  0  0  0  0  0  0  0
   29.6978   50.8770   47.7006 C   0  0  0  0  0  0  0  0  0  0  0  0
   29.3295   49.5619   47.8690 C   0  0  0  0  0  0  0  0  0  0  0  0
   29.2970   48.6154   46.7668 C   0  0  0  0  0  0  0  0  0  0  0  0
   28.8955   48.9816   45.5005 C   0  0  0  0  0  0  0  0  0  0  0  0
   28.8519   48.1100   44.4425 C   0  0  0  0  0  0  0  0  0  0  0  0
   28.4259   48.4931   43.0800 C   0  0  1  0  0  0  0  0  0  0  0  0
   29.4900   48.8582   42.1376 C   0  0  0  0  0  0  0  0  0  0  0  0
   30.0472   50.1901   42.1091 N   0  0  0  0  0  0  0  0  0  0  0  0
   29.9757   48.0152   41.3130 N   0  0  0  0  0  4  0  0  0  0  0  0
   27.3329   47.6907   42.4697 C   0  0  0  0  0  0  0  0  0  0  0  0
   26.8808   49.0064   41.8076 C   0  0  0  0  0  0  0  0  0  0  0  0
   27.3736   49.6495   43.1186 C   0  0  0  0  0  0  0  0  0  0  0  0
   29.2310   46.8084   44.6708 C   0  0  0  0  0  0  0  0  0  0  0  0
   29.6457   46.3924   45.9407 C   0  0  0  0  0  0  0  0  0  0  0  0
   30.1349   44.7497   46.2739 Cl  0  0  0  0  0  0  0  0  0  0  0  0
   29.6709   47.3085   46.9697 C   0  0  0  0  0  0  0  0  0  0  0  0
   28.9788   49.1321   49.1201 C   0  0  0  0  0  0  0  0  0  0  0  0
   28.9820   49.9625   50.2039 C   0  0  0  0  0  0  0  0  0  0  0  0
  1  2  2  0
  3  2  1  1
  2  4  1  0
  5  4  1  6
  5  6  1  0
  6 25  2  0
  6  7  1  0
  7  8  2  0
  8  9  1  0
  9 10  1  0
  9 24  2  0
 10 23  1  0
 10 11  2  0
 11 12  1  0
 13 12  1  1
 12 20  2  0
 13 19  1  0
 13 14  1  0
 17 13  1  6
 14 15  1  0
 14 16  2  3
 18 17  1  6
 19 18  1  1
 20 21  1  0
 21 22  1  0
 21 23  2  0
 24 25  1  0
M  CHG  1  16   1
M  END
$$$$
