
     RDKit          3D

 25 27  0  0  0  0  0  0  0  0999 V2000
   21.8223   41.6798   76.1057 O   0  0  0  0  0  0  0  0  0  0  0  0
   21.3171   41.6573   74.9705 C   0  0  0  0  0  0  0  0  0  0  0  0
   19.8721   42.0355   74.8277 C   0  0  0  0  0  0  0  0  0  0  0  0
   22.0360   41.2946   73.8137 N   0  0  0  0  0  0  0  0  0  0  0  0
   23.4111   40.9389   73.8633 C   0  0  0  0  0  0  0  0  0  0  0  0
   23.9683   40.5944   72.5398 C   0  0  0  0  0  0  0  0  0  0  0  0
   24.1180   39.3362   72.0421 C   0  0  0  0  0  0  0  0  0  0  0  0
   24.6424   39.0570   70.7841 C   0  0  0  0  0  0  0  0  0  0  0  0
   25.0351   40.1104   69.9907 C   0  0  0  0  0  0  0  0  0  0  0  0
   25.5965   39.9186   68.6641 C   0  0  0  0  0  0  0  0  0  0  0  0
   26.8979   40.2588   68.3649 C   0  0  0  0  0  0  0  0  0  0  0  0
   27.4534   40.0920   67.1221 C   0  0  0  0  0  0  0  0  0  0  0  0
   28.8487   40.4507   66.7915 C   0  0  1  0  0  0  0  0  0  0  0  0
   29.7990   39.3400   66.6618 C   0  0  0  0  0  0  0  0  0  0  0  0
   30.0601   38.7166   65.3857 N   0  0  0  0  0  0  0  0  0  0  0  0
   30.4424   38.8854   67.6649 N   0  0  0  0  0  4  0  0  0  0  0  0
   29.0426   41.5273   65.7845 C   0  0  0  0  0  0  0  0  0  0  0  0
   30.2806   41.9292   66.6090 C   0  0  0  0  0  0  0  0  0  0  0  0
   29.4255   41.4858   67.8121 C   0  0  0  0  0  0  0  0  0  0  0  0
   26.6608   39.5570   66.1343 C   0  0  0  0  0  0  0  0  0  0  0  0
   25.3337   39.1971   66.3933 C   0  0  0  0  0  0  0  0  0  0  0  0
   24.2929   38.5151   65.1684 Cl  0  0  0  0  0  0  0  0  0  0  0  0
   24.8243   39.3858   67.6597 C   0  0  0  0  0  0  0  0  0  0  0  0
   24.8937   41.3841   70.4709 C   0  0  0  0  0  0  0  0  0  0  0  0
   24.3773   41.6438   71.7080 C   0  0  0  0  0  0  0  0  0  0  0  0
  1  2  2  0
  3  2  1  1
  2  4  1  0
  5  4  1  6
  5  6  1  0
  6 25  2  0
  6  7  1  0
  7  8  2  0
  8  9  1  0
  9 10  1  0
  9 24  2  0
 10 23  1  0
 10 11  2  0
 11 12  1  0
 13 12  1  1
 12 20  2  0
 13 19  1  0
 13 14  1  0
 17 13  1  6
 14 15  1  0
 14 16  2  3
 18 17  1  6
 19 18  1  1
 20 21  1  0
 21 22  1  0
 21 23  2  0
 24 25  1  0
M  CHG  1  16   1
M  END
$$$$
