
     RDKit          3D

 47 47  0  0  0  0  0  0  0  0999 V2000
  -11.5030   -8.4808    2.4262 N   0  0  0  0  0  4  0  0  0  0  0  0
  -12.0290   -9.7976    2.1252 C   0  0  2  0  0  0  0  0  0  0  0  0
  -13.4845   -9.7903    2.3888 C   0  0  0  0  0  0  0  0  0  0  0  0
  -14.2846  -10.1605    1.4880 O   0  0  0  0  0  0  0  0  0  0  0  0
  -11.3022  -10.8541    2.9085 C   0  0  0  0  0  0  0  0  0  0  0  0
  -14.0673   -9.3898    3.6074 N   0  0  0  0  0  0  0  0  0  0  0  0
  -15.4058   -8.8252    3.7419 C   0  0  2  0  0  0  0  0  0  0  0  0
  -15.4105   -7.4442    4.2303 C   0  0  0  0  0  0  0  0  0  0  0  0
  -16.5096   -6.7947    4.2309 O   0  0  0  0  0  0  0  0  0  0  0  0
  -16.2255   -9.7052    4.6879 C   0  0  0  0  0  0  0  0  0  0  0  0
  -14.2351   -6.8406    4.6872 N   0  0  0  0  0  0  0  0  0  0  0  0
  -14.0706   -6.5237    6.0967 C   0  0  2  0  0  0  0  0  0  0  0  0
  -12.6651   -6.0544    6.2412 C   0  0  0  0  0  0  0  0  0  0  0  0
  -11.7715   -6.9601    6.3809 O   0  0  0  0  0  0  0  0  0  0  0  0
  -14.1271   -7.8006    6.9333 C   0  0  0  0  0  0  0  0  0  0  0  0
  -13.8319   -7.3652    8.3295 C   0  0  0  0  0  0  0  0  0  0  0  0
  -12.8513   -7.7901    8.9702 O   0  0  0  0  0  0  0  0  0  0  0  0
  -14.6793   -6.4496    8.9467 O   0  0  0  0  0  0  0  0  0  0  0  0
  -12.2555   -4.6969    6.2348 N   0  0  0  0  0  0  0  0  0  0  0  0
  -10.8064   -4.4847    6.3471 C   0  0  2  0  0  0  0  0  0  0  0  0
  -10.4140   -3.8015    7.5802 C   0  0  0  0  0  0  0  0  0  0  0  0
  -11.2083   -3.2875    8.4229 O   0  0  0  0  0  0  0  0  0  0  0  0
  -10.5006   -3.5729    5.1285 C   0  0  2  0  0  0  0  0  0  0  0  0
  -11.2391   -2.3978    5.2467 O   0  0  0  0  0  0  0  0  0  0  0  0
  -10.8118   -4.2867    3.8324 C   0  0  0  0  0  0  0  0  0  0  0  0
   -9.0101   -3.7093    7.8559 N   0  0  0  0  0  0  0  0  0  0  0  0
   -8.5478   -2.9016    8.9965 C   0  0  2  0  0  0  0  0  0  0  0  0
   -8.0042   -1.6554    8.4544 C   0  0  0  0  0  0  0  0  0  0  0  0
   -8.5240   -1.0078    7.5134 O   0  0  0  0  0  0  0  0  0  0  0  0
   -7.4259   -3.7145    9.6891 C   0  0  2  0  0  0  0  0  0  0  0  0
   -6.8891   -2.9731   10.7413 O   0  0  0  0  0  0  0  0  0  0  0  0
   -6.3119   -4.0392    8.7214 C   0  0  0  0  0  0  0  0  0  0  0  0
   -6.7885   -1.1125    9.0211 N   0  0  0  0  0  0  0  0  0  0  0  0
   -6.3530    0.1637    8.5517 C   0  0  2  0  0  0  0  0  0  0  0  0
   -5.1018    0.6302    9.1053 C   0  0  0  0  0  0  0  0  0  0  0  0
   -5.0413    0.5900   10.4209 O   0  0  0  0  0  0  0  0  0  0  0  0
   -7.4918    1.1451    8.9651 C   0  0  2  0  0  0  0  0  0  0  0  0
   -8.6068    0.7379    8.2384 O   0  0  0  0  0  0  0  0  0  0  0  0
   -7.0912    2.5507    8.6580 C   0  0  0  0  0  0  0  0  0  0  0  0
   -3.9677    1.1101    8.4110 N   0  0  0  0  0  0  0  0  0  0  0  0
   -2.6730    1.2357    9.0837 C   0  0  2  0  0  0  0  0  0  0  0  0
   -2.6655    2.4519    9.9420 C   0  0  0  0  0  0  0  0  0  0  0  0
   -3.7464    3.2828    9.9956 O   0  0  0  0  0  0  0  0  0  0  0  0
   -1.6388    1.2872    8.0221 C   0  0  0  0  0  0  0  0  0  0  0  0
   -2.3544    1.0772    6.7354 C   0  0  0  0  0  0  0  0  0  0  0  0
   -3.8089    1.4763    7.0418 C   0  0  0  0  0  0  0  0  0  0  0  0
   -1.6453    2.7004   10.6167 O   0  0  0  0  0  0  0  0  0  0  0  0
  1  2  1  0
  2  3  1  0
  2  5  1  1
  3  4  2  0
  3  6  1  0
  6  7  1  0
  7  8  1  0
  7 10  1  1
  8  9  2  0
  8 11  1  0
 11 12  1  0
 12 13  1  0
 12 15  1  1
 13 14  2  0
 13 19  1  0
 15 16  1  0
 16 17  2  0
 16 18  1  0
 20 19  1  1
 20 21  1  0
 20 23  1  0
 21 22  2  0
 21 26  1  0
 23 24  1  0
 23 25  1  6
 27 26  1  6
 27 28  1  0
 27 30  1  0
 28 29  2  0
 28 33  1  0
 30 31  1  0
 30 32  1  6
 34 33  1  1
 34 35  1  0
 34 37  1  0
 35 36  2  0
 35 40  1  0
 37 38  1  0
 37 39  1  6
 40 41  1  0
 40 46  1  0
 41 42  1  6
 41 44  1  0
 42 43  1  0
 42 47  2  0
 44 45  1  0
 45 46  1  0
M  CHG  1   1   1
M  END
$$$$
