
     RDKit          3D

 47 47  0  0  0  0  0  0  0  0999 V2000
  -19.1368   -8.1173    4.8089 N   0  0  0  0  0  4  0  0  0  0  0  0
  -18.2278   -8.9610    3.9578 C   0  0  2  0  0  0  0  0  0  0  0  0
  -17.1374   -8.0928    3.4397 C   0  0  0  0  0  0  0  0  0  0  0  0
  -17.3428   -6.8631    3.3435 O   0  0  0  0  0  0  0  0  0  0  0  0
  -19.0678   -9.5231    2.8397 C   0  0  0  0  0  0  0  0  0  0  0  0
  -15.8849   -8.6006    3.0523 N   0  0  0  0  0  0  0  0  0  0  0  0
  -14.7663   -7.8311    2.5440 C   0  0  2  0  0  0  0  0  0  0  0  0
  -14.1952   -7.0534    3.6728 C   0  0  0  0  0  0  0  0  0  0  0  0
  -14.2692   -5.7685    3.6384 O   0  0  0  0  0  0  0  0  0  0  0  0
  -15.3268   -6.7362    1.5930 C   0  0  0  0  0  0  0  0  0  0  0  0
  -13.5610   -7.6373    4.7998 N   0  0  0  0  0  0  0  0  0  0  0  0
  -13.0316   -6.7526    5.8236 C   0  0  2  0  0  0  0  0  0  0  0  0
  -11.8326   -6.0060    5.3711 C   0  0  0  0  0  0  0  0  0  0  0  0
  -11.1696   -6.3839    4.3594 O   0  0  0  0  0  0  0  0  0  0  0  0
  -12.6462   -7.6861    6.9894 C   0  0  0  0  0  0  0  0  0  0  0  0
  -12.2390   -6.8436    8.1395 C   0  0  0  0  0  0  0  0  0  0  0  0
  -12.9202   -6.7132    9.1812 O   0  0  0  0  0  0  0  0  0  0  0  0
  -11.0241   -6.1403    8.0794 O   0  0  0  0  0  0  0  0  0  0  0  0
  -11.4728   -4.8565    6.1174 N   0  0  0  0  0  0  0  0  0  0  0  0
  -10.3211   -4.0092    5.7617 C   0  0  2  0  0  0  0  0  0  0  0  0
   -9.7638   -3.5174    7.0052 C   0  0  0  0  0  0  0  0  0  0  0  0
  -10.5974   -3.1751    7.9297 O   0  0  0  0  0  0  0  0  0  0  0  0
  -10.8589   -2.8497    4.8857 C   0  0  2  0  0  0  0  0  0  0  0  0
  -11.8163   -3.3890    4.0099 O   0  0  0  0  0  0  0  0  0  0  0  0
   -9.7054   -2.4450    3.9852 C   0  0  0  0  0  0  0  0  0  0  0  0
   -8.3915   -3.3554    7.3535 N   0  0  0  0  0  0  0  0  0  0  0  0
   -8.0440   -2.7439    8.6025 C   0  0  2  0  0  0  0  0  0  0  0  0
   -7.7725   -1.2992    8.5196 C   0  0  0  0  0  0  0  0  0  0  0  0
   -8.5009   -0.5586    7.8176 O   0  0  0  0  0  0  0  0  0  0  0  0
   -6.8879   -3.4403    9.2870 C   0  0  2  0  0  0  0  0  0  0  0  0
   -5.8862   -3.6982    8.3558 O   0  0  0  0  0  0  0  0  0  0  0  0
   -7.3617   -4.6985    9.9265 C   0  0  0  0  0  0  0  0  0  0  0  0
   -6.6723   -0.6951    9.2319 N   0  0  0  0  0  0  0  0  0  0  0  0
   -6.3669    0.7219    9.1658 C   0  0  2  0  0  0  0  0  0  0  0  0
   -5.4337    1.0812   10.2595 C   0  0  0  0  0  0  0  0  0  0  0  0
   -5.8227    0.8567   11.4633 O   0  0  0  0  0  0  0  0  0  0  0  0
   -7.7061    1.4669    9.3847 C   0  0  2  0  0  0  0  0  0  0  0  0
   -8.3480    1.6348    8.1423 O   0  0  0  0  0  0  0  0  0  0  0  0
   -7.4892    2.7756   10.0870 C   0  0  0  0  0  0  0  0  0  0  0  0
   -4.1641    1.6502   10.0423 N   0  0  0  0  0  0  0  0  0  0  0  0
   -2.8172    1.1565   10.2062 C   0  0  2  0  0  0  0  0  0  0  0  0
   -2.0749    1.8799   11.2619 C   0  0  0  0  0  0  0  0  0  0  0  0
   -1.1797    1.2592   12.0941 O   0  0  0  0  0  0  0  0  0  0  0  0
   -2.2507    1.3953    8.8273 C   0  0  0  0  0  0  0  0  0  0  0  0
   -2.8502    2.7536    8.4941 C   0  0  0  0  0  0  0  0  0  0  0  0
   -3.9544    3.0031    9.4992 C   0  0  0  0  0  0  0  0  0  0  0  0
   -2.2777    3.1118   11.3935 O   0  0  0  0  0  0  0  0  0  0  0  0
  1  2  1  6
  2  3  1  6
  5  2  1  6
  3  4  2  0
  3  6  1  0
  7  6  1  1
  7  8  1  0
 10  7  1  6
  8  9  2  0
  8 11  1  0
 12 11  1  6
 12 13  1  0
 12 15  1  0
 13 14  2  0
 13 19  1  0
 15 16  1  6
 16 17  2  0
 16 18  1  0
 20 19  1  1
 20 21  1  0
 20 23  1  0
 21 22  2  0
 21 26  1  0
 23 24  1  6
 25 23  1  6
 27 26  1  6
 27 28  1  0
 27 30  1  0
 28 29  2  0
 28 33  1  0
 30 31  1  6
 32 30  1  6
 34 33  1  1
 34 35  1  0
 34 37  1  0
 35 36  2  0
 35 40  1  0
 37 38  1  6
 39 37  1  6
 40 41  1  0
 46 40  1  1
 41 42  1  1
 44 41  1  1
 42 43  1  0
 42 47  2  0
 44 45  1  0
 45 46  1  6
M  CHG  1   1   1
M  END
$$$$
