
     RDKit          3D

 47 47  0  0  0  0  0  0  0  0999 V2000
  -13.7446  -11.8183    5.2884 N   0  0  0  0  0  4  0  0  0  0  0  0
  -12.3832  -12.2719    5.0827 C   0  0  2  0  0  0  0  0  0  0  0  0
  -11.5667  -11.1171    4.6496 C   0  0  0  0  0  0  0  0  0  0  0  0
  -11.3783  -10.9108    3.4206 O   0  0  0  0  0  0  0  0  0  0  0  0
  -12.3430  -13.4113    4.1039 C   0  0  0  0  0  0  0  0  0  0  0  0
  -10.9631  -10.1983    5.5308 N   0  0  0  0  0  0  0  0  0  0  0  0
  -10.1362   -9.0701    5.1159 C   0  0  2  0  0  0  0  0  0  0  0  0
   -9.6687   -8.2467    6.2335 C   0  0  0  0  0  0  0  0  0  0  0  0
   -9.0774   -8.8148    7.2121 O   0  0  0  0  0  0  0  0  0  0  0  0
  -10.9311   -8.2021    4.1383 C   0  0  0  0  0  0  0  0  0  0  0  0
   -9.8652   -6.8625    6.2365 N   0  0  0  0  0  0  0  0  0  0  0  0
   -8.9768   -5.9949    6.9930 C   0  0  2  0  0  0  0  0  0  0  0  0
   -9.2917   -4.6101    6.5460 C   0  0  0  0  0  0  0  0  0  0  0  0
   -8.7552   -4.2277    5.4486 O   0  0  0  0  0  0  0  0  0  0  0  0
   -7.5300   -6.2107    6.5529 C   0  0  0  0  0  0  0  0  0  0  0  0
   -6.7331   -5.2207    7.3345 C   0  0  0  0  0  0  0  0  0  0  0  0
   -7.2542   -4.4367    8.1509 O   0  0  0  0  0  0  0  0  0  0  0  0
   -5.3545   -5.1646    7.1505 O   0  0  0  0  0  0  0  0  0  0  0  0
  -10.1304   -3.7017    7.2402 N   0  0  0  0  0  0  0  0  0  0  0  0
  -10.6211   -2.5727    6.4389 C   0  0  2  0  0  0  0  0  0  0  0  0
  -10.0526   -1.2856    6.8406 C   0  0  0  0  0  0  0  0  0  0  0  0
  -10.3910   -0.1546    6.3807 O   0  0  0  0  0  0  0  0  0  0  0  0
  -12.1450   -2.5822    6.7350 C   0  0  2  0  0  0  0  0  0  0  0  0
  -12.3379   -2.5225    8.1132 O   0  0  0  0  0  0  0  0  0  0  0  0
  -12.7992   -3.8103    6.1437 C   0  0  0  0  0  0  0  0  0  0  0  0
   -9.0264   -1.3102    7.8415 N   0  0  0  0  0  0  0  0  0  0  0  0
   -8.4548   -0.0422    8.3237 C   0  0  2  0  0  0  0  0  0  0  0  0
   -7.1621    0.1319    7.6598 C   0  0  0  0  0  0  0  0  0  0  0  0
   -6.9004   -0.2792    6.5033 O   0  0  0  0  0  0  0  0  0  0  0  0
   -8.2516   -0.2005    9.8510 C   0  0  2  0  0  0  0  0  0  0  0  0
   -7.4956   -1.3438   10.1087 O   0  0  0  0  0  0  0  0  0  0  0  0
   -9.5759   -0.3372   10.5654 C   0  0  0  0  0  0  0  0  0  0  0  0
   -6.0980    0.8183    8.3601 N   0  0  0  0  0  0  0  0  0  0  0  0
   -4.9111    1.1203    7.6262 C   0  0  2  0  0  0  0  0  0  0  0  0
   -3.7348    0.3805    8.0246 C   0  0  0  0  0  0  0  0  0  0  0  0
   -3.6935    0.0745    9.3055 O   0  0  0  0  0  0  0  0  0  0  0  0
   -4.6683    2.6397    7.8775 C   0  0  2  0  0  0  0  0  0  0  0  0
   -3.4560    2.9238    7.2558 O   0  0  0  0  0  0  0  0  0  0  0  0
   -4.6371    2.9160    9.3450 C   0  0  0  0  0  0  0  0  0  0  0  0
   -2.6550   -0.0399    7.2147 N   0  0  0  0  0  0  0  0  0  0  0  0
   -1.6039   -0.9049    7.7546 C   0  0  2  0  0  0  0  0  0  0  0  0
   -0.6686   -0.1025    8.5896 C   0  0  0  0  0  0  0  0  0  0  0  0
   -1.1348    0.7634    9.5355 O   0  0  0  0  0  0  0  0  0  0  0  0
   -0.9270   -1.5356    6.5955 C   0  0  0  0  0  0  0  0  0  0  0  0
   -1.6809   -1.1025    5.3890 C   0  0  0  0  0  0  0  0  0  0  0  0
   -2.3941    0.1876    5.8312 C   0  0  0  0  0  0  0  0  0  0  0  0
    0.5590   -0.2363    8.4079 O   0  0  0  0  0  0  0  0  0  0  0  0
  1  2  1  0
  2  3  1  0
  2  5  1  6
  3  4  2  0
  3  6  1  0
  6  7  1  0
  7  8  1  0
  7 10  1  6
  8  9  2  0
  8 11  1  0
 11 12  1  0
 12 13  1  0
 12 15  1  6
 13 14  2  0
 13 19  1  0
 15 16  1  0
 16 17  2  0
 16 18  1  0
 20 19  1  1
 20 21  1  0
 20 23  1  0
 21 22  2  0
 21 26  1  0
 23 24  1  0
 23 25  1  1
 27 26  1  6
 27 28  1  0
 27 30  1  0
 28 29  2  0
 28 33  1  0
 30 31  1  0
 30 32  1  1
 34 33  1  1
 34 35  1  0
 34 37  1  0
 35 36  2  0
 35 40  1  0
 37 38  1  0
 37 39  1  1
 40 41  1  0
 40 46  1  0
 41 42  1  6
 41 44  1  0
 42 43  1  0
 42 47  2  0
 44 45  1  0
 45 46  1  0
M  CHG  1   1   1
M  END
$$$$
