
     RDKit          3D

 47 47  0  0  0  0  0  0  0  0999 V2000
  -18.2677  -10.4391    3.2609 N   0  0  0  0  0  4  0  0  0  0  0  0
  -17.7921  -10.6224    4.6179 C   0  0  2  0  0  0  0  0  0  0  0  0
  -16.4330  -10.0469    4.7180 C   0  0  0  0  0  0  0  0  0  0  0  0
  -16.2187   -9.0828    5.5010 O   0  0  0  0  0  0  0  0  0  0  0  0
  -17.8388  -12.0727    5.0080 C   0  0  0  0  0  0  0  0  0  0  0  0
  -15.3218  -10.5063    3.9836 N   0  0  0  0  0  0  0  0  0  0  0  0
  -13.9757   -9.9522    4.0806 C   0  0  2  0  0  0  0  0  0  0  0  0
  -13.9536   -8.4954    4.2323 C   0  0  0  0  0  0  0  0  0  0  0  0
  -13.5953   -7.9980    5.3522 O   0  0  0  0  0  0  0  0  0  0  0  0
  -13.1821  -10.3489    2.8340 C   0  0  0  0  0  0  0  0  0  0  0  0
  -14.3194   -7.6581    3.1741 N   0  0  0  0  0  0  0  0  0  0  0  0
  -13.4852   -6.5237    2.8113 C   0  0  2  0  0  0  0  0  0  0  0  0
  -13.0083   -5.9481    4.0988 C   0  0  0  0  0  0  0  0  0  0  0  0
  -13.8948   -5.4049    4.8453 O   0  0  0  0  0  0  0  0  0  0  0  0
  -14.3406   -5.4157    2.1996 C   0  0  0  0  0  0  0  0  0  0  0  0
  -14.4925   -5.7888    0.7630 C   0  0  0  0  0  0  0  0  0  0  0  0
  -15.2325   -5.1596   -0.0176 O   0  0  0  0  0  0  0  0  0  0  0  0
  -13.7837   -6.8797    0.2680 O   0  0  0  0  0  0  0  0  0  0  0  0
  -11.6631   -5.9602    4.5472 N   0  0  0  0  0  0  0  0  0  0  0  0
  -11.3803   -5.0781    5.6871 C   0  0  2  0  0  0  0  0  0  0  0  0
   -9.9775   -4.6704    5.7712 C   0  0  0  0  0  0  0  0  0  0  0  0
   -9.0507   -5.0542    4.9971 O   0  0  0  0  0  0  0  0  0  0  0  0
  -11.7349   -5.9725    6.9054 C   0  0  2  0  0  0  0  0  0  0  0  0
  -10.9345   -7.1121    6.8776 O   0  0  0  0  0  0  0  0  0  0  0  0
  -13.2028   -6.3346    6.8965 C   0  0  0  0  0  0  0  0  0  0  0  0
   -9.6257   -3.7572    6.8189 N   0  0  0  0  0  0  0  0  0  0  0  0
   -8.4240   -2.9191    6.6756 C   0  0  2  0  0  0  0  0  0  0  0  0
   -8.2848   -2.1448    7.9099 C   0  0  0  0  0  0  0  0  0  0  0  0
   -9.2344   -1.5681    8.4935 O   0  0  0  0  0  0  0  0  0  0  0  0
   -8.6855   -1.9708    5.4792 C   0  0  2  0  0  0  0  0  0  0  0  0
  -10.0118   -1.5400    5.5020 O   0  0  0  0  0  0  0  0  0  0  0  0
   -8.4376   -2.6721    4.1641 C   0  0  0  0  0  0  0  0  0  0  0  0
   -6.9778   -2.0188    8.5181 N   0  0  0  0  0  0  0  0  0  0  0  0
   -6.8639   -1.1882    9.6738 C   0  0  2  0  0  0  0  0  0  0  0  0
   -6.1160    0.0342    9.4832 C   0  0  0  0  0  0  0  0  0  0  0  0
   -5.1387   -0.0584    8.6043 O   0  0  0  0  0  0  0  0  0  0  0  0
   -6.1325   -2.0757   10.7264 C   0  0  2  0  0  0  0  0  0  0  0  0
   -4.9514   -2.4765   10.1089 O   0  0  0  0  0  0  0  0  0  0  0  0
   -6.9978   -3.2310   11.1100 C   0  0  0  0  0  0  0  0  0  0  0  0
   -6.3122    1.2826   10.1169 N   0  0  0  0  0  0  0  0  0  0  0  0
   -5.5366    2.4582    9.7158 C   0  0  2  0  0  0  0  0  0  0  0  0
   -4.1657    2.3791   10.2904 C   0  0  0  0  0  0  0  0  0  0  0  0
   -3.8292    1.3984   11.1774 O   0  0  0  0  0  0  0  0  0  0  0  0
   -6.2810    3.6490   10.1926 C   0  0  0  0  0  0  0  0  0  0  0  0
   -7.5504    3.1385   10.7754 C   0  0  0  0  0  0  0  0  0  0  0  0
   -7.2436    1.6713   11.1245 C   0  0  0  0  0  0  0  0  0  0  0  0
   -3.3228    3.2321    9.9442 O   0  0  0  0  0  0  0  0  0  0  0  0
  1  2  1  0
  2  3  1  0
  2  5  1  6
  3  4  2  0
  3  6  1  0
  6  7  1  0
  7  8  1  0
  7 10  1  6
  8  9  2  0
  8 11  1  0
 11 12  1  0
 12 13  1  0
 12 15  1  1
 13 14  2  0
 13 19  1  0
 15 16  1  0
 16 17  2  0
 16 18  1  0
 20 19  1  6
 20 21  1  0
 20 23  1  0
 21 22  2  0
 21 26  1  0
 23 24  1  0
 23 25  1  6
 27 26  1  1
 27 28  1  0
 27 30  1  0
 28 29  2  0
 28 33  1  0
 30 31  1  0
 30 32  1  6
 34 33  1  6
 34 35  1  0
 34 37  1  0
 35 36  2  0
 35 40  1  0
 37 38  1  0
 37 39  1  6
 40 41  1  0
 40 46  1  0
 41 42  1  1
 41 44  1  0
 42 43  1  0
 42 47  2  0
 44 45  1  0
 45 46  1  0
M  CHG  1   1   1
M  END
$$$$
