
     RDKit          3D

 47 47  0  0  0  0  0  0  0  0999 V2000
   -1.2586   -0.3228   11.9923 N   0  0  0  0  0  4  0  0  0  0  0  0
   -2.4300   -0.3007   11.0490 C   0  0  2  0  0  0  0  0  0  0  0  0
   -3.5605    0.3868   11.7274 C   0  0  0  0  0  0  0  0  0  0  0  0
   -3.5861    0.4110   12.9774 O   0  0  0  0  0  0  0  0  0  0  0  0
   -2.7648   -1.7350   10.7291 C   0  0  0  0  0  0  0  0  0  0  0  0
   -4.6028    1.0096   11.0185 N   0  0  0  0  0  0  0  0  0  0  0  0
   -5.7193    1.7340   11.5933 C   0  0  2  0  0  0  0  0  0  0  0  0
   -6.9459    1.3492   10.8500 C   0  0  0  0  0  0  0  0  0  0  0  0
   -7.8490    2.2431   10.6422 O   0  0  0  0  0  0  0  0  0  0  0  0
   -5.5434    3.2407   11.2523 C   0  0  0  0  0  0  0  0  0  0  0  0
   -7.1961    0.0451   10.3500 N   0  0  0  0  0  0  0  0  0  0  0  0
   -7.4075   -0.1127    8.9212 C   0  0  2  0  0  0  0  0  0  0  0  0
   -7.2422   -1.5157    8.4694 C   0  0  0  0  0  0  0  0  0  0  0  0
   -6.0980   -1.9819    8.1875 O   0  0  0  0  0  0  0  0  0  0  0  0
   -6.3268    0.7698    8.2637 C   0  0  0  0  0  0  0  0  0  0  0  0
   -6.9952    1.6748    7.2981 C   0  0  0  0  0  0  0  0  0  0  0  0
   -6.9691    1.5096    6.0578 O   0  0  0  0  0  0  0  0  0  0  0  0
   -7.7031    2.7895    7.7784 O   0  0  0  0  0  0  0  0  0  0  0  0
   -8.4170   -2.3022    8.3750 N   0  0  0  0  0  0  0  0  0  0  0  0
   -8.5960   -3.3389    7.3433 C   0  0  2  0  0  0  0  0  0  0  0  0
  -10.0221   -3.4705    7.1256 C   0  0  0  0  0  0  0  0  0  0  0  0
  -10.6442   -2.4404    6.6579 O   0  0  0  0  0  0  0  0  0  0  0  0
   -7.9858   -4.6496    7.9007 C   0  0  2  0  0  0  0  0  0  0  0  0
   -8.1804   -5.6519    6.9352 O   0  0  0  0  0  0  0  0  0  0  0  0
   -8.8782   -5.0592    9.0587 C   0  0  0  0  0  0  0  0  0  0  0  0
  -10.8494   -4.6060    7.3639 N   0  0  0  0  0  0  0  0  0  0  0  0
  -11.8136   -5.0005    6.3793 C   0  0  2  0  0  0  0  0  0  0  0  0
  -11.6451   -6.3741    5.8765 C   0  0  0  0  0  0  0  0  0  0  0  0
  -10.8062   -7.1417    6.4047 O   0  0  0  0  0  0  0  0  0  0  0  0
  -11.8798   -4.0370    5.2142 C   0  0  2  0  0  0  0  0  0  0  0  0
  -11.5479   -4.7070    4.0403 O   0  0  0  0  0  0  0  0  0  0  0  0
  -10.9621   -2.8893    5.4536 C   0  0  0  0  0  0  0  0  0  0  0  0
  -12.4273   -6.8759    4.7725 N   0  0  0  0  0  0  0  0  0  0  0  0
  -13.4011   -7.9427    4.9102 C   0  0  2  0  0  0  0  0  0  0  0  0
  -14.4462   -7.7998    3.8693 C   0  0  0  0  0  0  0  0  0  0  0  0
  -14.9518   -6.6310    3.6987 O   0  0  0  0  0  0  0  0  0  0  0  0
  -14.0526   -7.7607    6.3026 C   0  0  2  0  0  0  0  0  0  0  0  0
  -13.1590   -8.2150    7.2920 O   0  0  0  0  0  0  0  0  0  0  0  0
  -15.3775   -8.4624    6.3766 C   0  0  0  0  0  0  0  0  0  0  0  0
  -14.9035   -8.8690    3.0753 N   0  0  0  0  0  0  0  0  0  0  0  0
  -14.8327   -9.1526    1.6614 C   0  0  2  0  0  0  0  0  0  0  0  0
  -16.1653   -9.1573    1.0186 C   0  0  0  0  0  0  0  0  0  0  0  0
  -17.2620   -9.7445    1.5945 O   0  0  0  0  0  0  0  0  0  0  0  0
  -14.1853  -10.5165    1.6709 C   0  0  0  0  0  0  0  0  0  0  0  0
  -14.8913  -11.1690    2.8504 C   0  0  0  0  0  0  0  0  0  0  0  0
  -15.5810  -10.0599    3.6158 C   0  0  0  0  0  0  0  0  0  0  0  0
  -16.2884   -8.5977   -0.0984 O   0  0  0  0  0  0  0  0  0  0  0  0
  1  2  1  6
  2  3  1  1
  5  2  1  6
  3  4  2  0
  3  6  1  0
  7  6  1  6
  7  8  1  0
 10  7  1  6
  8  9  2  0
  8 11  1  0
 12 11  1  1
 12 13  1  0
 12 15  1  0
 13 14  2  0
 13 19  1  0
 15 16  1  6
 16 17  2  0
 16 18  1  0
 20 19  1  1
 20 21  1  0
 20 23  1  0
 21 22  2  0
 21 26  1  0
 23 24  1  6
 25 23  1  6
 27 26  1  1
 27 28  1  0
 27 30  1  0
 28 29  2  0
 28 33  1  0
 30 31  1  6
 32 30  1  6
 34 33  1  6
 34 35  1  0
 34 37  1  0
 35 36  2  0
 35 40  1  0
 37 38  1  1
 39 37  1  6
 40 41  1  0
 46 40  1  1
 41 42  1  1
 44 41  1  1
 42 43  1  0
 42 47  2  0
 44 45  1  0
 45 46  1  6
M  CHG  1   1   1
M  END
$$$$
