
     RDKit          3D

 47 47  0  0  0  0  0  0  0  0999 V2000
  -14.1722   -8.3807    3.2502 N   0  0  0  0  0  4  0  0  0  0  0  0
  -15.4093   -7.8727    3.8095 C   0  0  2  0  0  0  0  0  0  0  0  0
  -15.0839   -7.0640    5.0046 C   0  0  0  0  0  0  0  0  0  0  0  0
  -15.8461   -7.0968    6.0078 O   0  0  0  0  0  0  0  0  0  0  0  0
  -16.3598   -8.9970    4.1104 C   0  0  0  0  0  0  0  0  0  0  0  0
  -13.9518   -6.2326    5.1147 N   0  0  0  0  0  0  0  0  0  0  0  0
  -13.4791   -5.6336    6.3582 C   0  0  2  0  0  0  0  0  0  0  0  0
  -12.2492   -4.8537    6.2000 C   0  0  0  0  0  0  0  0  0  0  0  0
  -11.2935   -5.3439    5.5099 O   0  0  0  0  0  0  0  0  0  0  0  0
  -13.2540   -6.7401    7.3907 C   0  0  0  0  0  0  0  0  0  0  0  0
  -12.1165   -3.5948    6.7935 N   0  0  0  0  0  0  0  0  0  0  0  0
  -10.9196   -2.7994    6.5717 C   0  0  2  0  0  0  0  0  0  0  0  0
   -9.9124   -3.3110    7.5414 C   0  0  0  0  0  0  0  0  0  0  0  0
  -10.3663   -3.9485    8.5543 O   0  0  0  0  0  0  0  0  0  0  0  0
  -11.1594   -1.3551    7.0075 C   0  0  0  0  0  0  0  0  0  0  0  0
  -11.8126   -0.6984    5.8379 C   0  0  0  0  0  0  0  0  0  0  0  0
  -12.1618    0.4977    5.8503 O   0  0  0  0  0  0  0  0  0  0  0  0
  -12.0438   -1.4433    4.6850 O   0  0  0  0  0  0  0  0  0  0  0  0
   -8.5094   -3.1435    7.4222 N   0  0  0  0  0  0  0  0  0  0  0  0
   -7.9007   -2.2650    8.4298 C   0  0  2  0  0  0  0  0  0  0  0  0
   -6.5735   -1.7794    8.0505 C   0  0  0  0  0  0  0  0  0  0  0  0
   -6.2257   -1.4181    6.8869 O   0  0  0  0  0  0  0  0  0  0  0  0
   -7.7790   -3.1973    9.6650 C   0  0  2  0  0  0  0  0  0  0  0  0
   -7.0627   -4.3358    9.3031 O   0  0  0  0  0  0  0  0  0  0  0  0
   -9.1455   -3.5583   10.2020 C   0  0  0  0  0  0  0  0  0  0  0  0
   -5.5856   -1.7057    9.0868 N   0  0  0  0  0  0  0  0  0  0  0  0
   -4.1579   -1.7177    8.7281 C   0  0  2  0  0  0  0  0  0  0  0  0
   -3.8086   -3.0963    8.3820 C   0  0  0  0  0  0  0  0  0  0  0  0
   -4.6467   -3.9974    8.1359 O   0  0  0  0  0  0  0  0  0  0  0  0
   -3.3801   -1.2730    9.9916 C   0  0  2  0  0  0  0  0  0  0  0  0
   -4.1665   -0.4020   10.7454 O   0  0  0  0  0  0  0  0  0  0  0  0
   -2.1023   -0.5570    9.6207 C   0  0  0  0  0  0  0  0  0  0  0  0
   -2.4130   -3.4726    8.3127 N   0  0  0  0  0  0  0  0  0  0  0  0
   -2.1065   -4.7962    7.8739 C   0  0  2  0  0  0  0  0  0  0  0  0
   -0.7015   -5.1365    7.8758 C   0  0  0  0  0  0  0  0  0  0  0  0
    0.0787   -4.2262    7.3291 O   0  0  0  0  0  0  0  0  0  0  0  0
   -2.6458   -4.8616    6.4125 C   0  0  2  0  0  0  0  0  0  0  0  0
   -4.0237   -4.7006    6.5240 O   0  0  0  0  0  0  0  0  0  0  0  0
   -2.2710   -6.1654    5.7877 C   0  0  0  0  0  0  0  0  0  0  0  0
   -0.0892   -6.3043    8.3857 N   0  0  0  0  0  0  0  0  0  0  0  0
    1.3298   -6.3113    8.7475 C   0  0  2  0  0  0  0  0  0  0  0  0
    2.1640   -6.4075    7.5185 C   0  0  0  0  0  0  0  0  0  0  0  0
    1.6150   -6.7610    6.3204 O   0  0  0  0  0  0  0  0  0  0  0  0
    1.5359   -7.4609    9.6615 C   0  0  0  0  0  0  0  0  0  0  0  0
    0.1897   -8.0445    9.9041 C   0  0  0  0  0  0  0  0  0  0  0  0
   -0.6474   -7.5787    8.6995 C   0  0  0  0  0  0  0  0  0  0  0  0
    3.3839   -6.1575    7.6036 O   0  0  0  0  0  0  0  0  0  0  0  0
  1  2  1  0
  2  3  1  0
  2  5  1  1
  3  4  2  0
  3  6  1  0
  6  7  1  0
  7  8  1  0
  7 10  1  1
  8  9  2  0
  8 11  1  0
 11 12  1  0
 12 13  1  0
 12 15  1  1
 13 14  2  0
 13 19  1  0
 15 16  1  0
 16 17  2  0
 16 18  1  0
 20 19  1  6
 20 21  1  0
 20 23  1  0
 21 22  2  0
 21 26  1  0
 23 24  1  0
 23 25  1  6
 27 26  1  1
 27 28  1  0
 27 30  1  0
 28 29  2  0
 28 33  1  0
 30 31  1  0
 30 32  1  6
 34 33  1  6
 34 35  1  0
 34 37  1  0
 35 36  2  0
 35 40  1  0
 37 38  1  0
 37 39  1  1
 40 41  1  0
 40 46  1  0
 41 42  1  6
 41 44  1  0
 42 43  1  0
 42 47  2  0
 44 45  1  0
 45 46  1  0
M  CHG  1   1   1
M  END
$$$$
