
     RDKit          3D

 47 47  0  0  0  0  0  0  0  0999 V2000
  -15.9984   -8.0777    5.7466 N   0  0  0  0  0  4  0  0  0  0  0  0
  -15.2672   -9.1005    4.9210 C   0  0  2  0  0  0  0  0  0  0  0  0
  -14.6119   -8.3993    3.7852 C   0  0  0  0  0  0  0  0  0  0  0  0
  -15.2312   -8.2983    2.7035 O   0  0  0  0  0  0  0  0  0  0  0  0
  -16.2937  -10.0944    4.4411 C   0  0  0  0  0  0  0  0  0  0  0  0
  -13.3226   -7.8466    3.8793 N   0  0  0  0  0  0  0  0  0  0  0  0
  -12.9194   -6.5270    3.4344 C   0  0  2  0  0  0  0  0  0  0  0  0
  -12.7367   -5.6747    4.6367 C   0  0  0  0  0  0  0  0  0  0  0  0
  -13.7740   -5.3454    5.3247 O   0  0  0  0  0  0  0  0  0  0  0  0
  -14.1272   -5.8744    2.7045 C   0  0  0  0  0  0  0  0  0  0  0  0
  -11.4806   -5.1882    5.0826 N   0  0  0  0  0  0  0  0  0  0  0  0
  -11.4509   -4.3569    6.2739 C   0  0  2  0  0  0  0  0  0  0  0  0
  -10.0913   -3.8541    6.5875 C   0  0  0  0  0  0  0  0  0  0  0  0
   -9.2052   -4.6207    7.0703 O   0  0  0  0  0  0  0  0  0  0  0  0
  -11.9320   -5.2815    7.4110 C   0  0  0  0  0  0  0  0  0  0  0  0
  -10.7403   -5.9123    8.0276 C   0  0  0  0  0  0  0  0  0  0  0  0
   -9.5984   -5.4003    8.0160 O   0  0  0  0  0  0  0  0  0  0  0  0
  -10.8749   -7.1569    8.6657 O   0  0  0  0  0  0  0  0  0  0  0  0
   -9.8344   -2.4870    6.3174 N   0  0  0  0  0  0  0  0  0  0  0  0
   -8.4995   -1.9912    5.9389 C   0  0  2  0  0  0  0  0  0  0  0  0
   -8.0258   -1.1812    7.0425 C   0  0  0  0  0  0  0  0  0  0  0  0
   -8.1083    0.1005    6.9104 O   0  0  0  0  0  0  0  0  0  0  0  0
   -8.6729   -1.1466    4.6514 C   0  0  2  0  0  0  0  0  0  0  0  0
   -9.6136   -0.1402    4.9281 O   0  0  0  0  0  0  0  0  0  0  0  0
   -9.3701   -2.0547    3.6542 C   0  0  0  0  0  0  0  0  0  0  0  0
   -7.4682   -1.6158    8.2797 N   0  0  0  0  0  0  0  0  0  0  0  0
   -7.2545   -0.6679    9.3336 C   0  0  2  0  0  0  0  0  0  0  0  0
   -5.9045   -0.7023    9.9204 C   0  0  0  0  0  0  0  0  0  0  0  0
   -5.7559   -0.8669   11.1544 O   0  0  0  0  0  0  0  0  0  0  0  0
   -8.2894   -0.7791   10.4320 C   0  0  2  0  0  0  0  0  0  0  0  0
   -8.0598   -1.9374   11.1686 O   0  0  0  0  0  0  0  0  0  0  0  0
   -9.6562   -0.7819    9.8414 C   0  0  0  0  0  0  0  0  0  0  0  0
   -4.7228   -0.5475    9.1066 N   0  0  0  0  0  0  0  0  0  0  0  0
   -3.3780   -0.5513    9.6517 C   0  0  2  0  0  0  0  0  0  0  0  0
   -2.3995   -0.3170    8.5637 C   0  0  0  0  0  0  0  0  0  0  0  0
   -2.7233   -0.7128    7.3849 O   0  0  0  0  0  0  0  0  0  0  0  0
   -3.1487   -1.9665   10.2357 C   0  0  2  0  0  0  0  0  0  0  0  0
   -1.8468   -2.0394   10.7683 O   0  0  0  0  0  0  0  0  0  0  0  0
   -3.3929   -3.0257    9.2006 C   0  0  0  0  0  0  0  0  0  0  0  0
   -1.1522    0.3060    8.7610 N   0  0  0  0  0  0  0  0  0  0  0  0
   -0.3761    1.2373    7.9769 C   0  0  2  0  0  0  0  0  0  0  0  0
    0.8946    0.6505    7.4975 C   0  0  0  0  0  0  0  0  0  0  0  0
    1.6480   -0.2048    8.2590 O   0  0  0  0  0  0  0  0  0  0  0  0
   -0.1644    2.3507    8.9743 C   0  0  0  0  0  0  0  0  0  0  0  0
    0.0968    1.5594   10.2475 C   0  0  0  0  0  0  0  0  0  0  0  0
   -0.3330    0.1341    9.9729 C   0  0  0  0  0  0  0  0  0  0  0  0
    1.2912    0.9522    6.3452 O   0  0  0  0  0  0  0  0  0  0  0  0
  1  2  1  6
  2  3  1  6
  5  2  1  6
  3  4  2  0
  3  6  1  0
  7  6  1  1
  7  8  1  0
 10  7  1  6
  8  9  2  0
  8 11  1  0
 12 11  1  6
 12 13  1  0
 12 15  1  0
 13 14  2  0
 13 19  1  0
 15 16  1  6
 16 17  2  0
 16 18  1  0
 20 19  1  1
 20 21  1  0
 20 23  1  0
 21 22  2  0
 21 26  1  0
 23 24  1  1
 25 23  1  6
 27 26  1  6
 27 28  1  0
 27 30  1  0
 28 29  2  0
 28 33  1  0
 30 31  1  6
 32 30  1  6
 34 33  1  6
 34 35  1  0
 34 37  1  0
 35 36  2  0
 35 40  1  0
 37 38  1  6
 39 37  1  6
 40 41  1  0
 46 40  1  1
 41 42  1  1
 44 41  1  1
 42 43  1  0
 42 47  2  0
 44 45  1  0
 45 46  1  6
M  CHG  1   1   1
M  END
$$$$
