
     RDKit          3D

 47 47  0  0  0  0  0  0  0  0999 V2000
  -19.1082   -9.0319    4.2020 N   0  0  0  0  0  4  0  0  0  0  0  0
  -17.9508   -8.1371    4.5514 C   0  0  2  0  0  0  0  0  0  0  0  0
  -16.7631   -8.5901    3.7799 C   0  0  0  0  0  0  0  0  0  0  0  0
  -16.9430   -9.2105    2.7091 O   0  0  0  0  0  0  0  0  0  0  0  0
  -17.7287   -8.2642    6.0368 C   0  0  0  0  0  0  0  0  0  0  0  0
  -15.4456   -8.3496    4.2078 N   0  0  0  0  0  0  0  0  0  0  0  0
  -14.3656   -7.8137    3.4026 C   0  0  2  0  0  0  0  0  0  0  0  0
  -13.4961   -6.9979    4.2879 C   0  0  0  0  0  0  0  0  0  0  0  0
  -12.4585   -6.4284    3.7812 O   0  0  0  0  0  0  0  0  0  0  0  0
  -14.9685   -6.7699    2.4206 C   0  0  0  0  0  0  0  0  0  0  0  0
  -13.7314   -6.8040    5.6736 N   0  0  0  0  0  0  0  0  0  0  0  0
  -12.5867   -6.5708    6.5375 C   0  0  2  0  0  0  0  0  0  0  0  0
  -11.5051   -5.8126    5.8628 C   0  0  0  0  0  0  0  0  0  0  0  0
  -11.0251   -6.2017    4.7563 O   0  0  0  0  0  0  0  0  0  0  0  0
  -12.0760   -7.9797    6.9029 C   0  0  0  0  0  0  0  0  0  0  0  0
  -11.0669   -7.8393    7.9800 C   0  0  0  0  0  0  0  0  0  0  0  0
  -10.4361   -8.8021    8.4713 O   0  0  0  0  0  0  0  0  0  0  0  0
  -10.7867   -6.5630    8.4965 O   0  0  0  0  0  0  0  0  0  0  0  0
  -11.0440   -4.6393    6.5096 N   0  0  0  0  0  0  0  0  0  0  0  0
   -9.9518   -3.8124    5.9671 C   0  0  2  0  0  0  0  0  0  0  0  0
   -9.2305   -3.2749    7.1026 C   0  0  0  0  0  0  0  0  0  0  0  0
   -9.3036   -3.9319    8.2116 O   0  0  0  0  0  0  0  0  0  0  0  0
  -10.6044   -2.6856    5.1271 C   0  0  2  0  0  0  0  0  0  0  0  0
  -11.6402   -2.1291    5.8964 O   0  0  0  0  0  0  0  0  0  0  0  0
  -11.3150   -3.3848    3.9820 C   0  0  0  0  0  0  0  0  0  0  0  0
   -8.4354   -2.0939    7.1635 N   0  0  0  0  0  0  0  0  0  0  0  0
   -7.8153   -1.7191    8.4004 C   0  0  2  0  0  0  0  0  0  0  0  0
   -6.9327   -0.5442    8.3087 C   0  0  0  0  0  0  0  0  0  0  0  0
   -5.8002   -0.6444    7.7802 O   0  0  0  0  0  0  0  0  0  0  0  0
   -7.0692   -2.8666    9.0458 C   0  0  2  0  0  0  0  0  0  0  0  0
   -6.4903   -2.4319   10.2345 O   0  0  0  0  0  0  0  0  0  0  0  0
   -6.0382   -3.3912    8.1085 C   0  0  0  0  0  0  0  0  0  0  0  0
   -7.3346    0.7444    8.8193 N   0  0  0  0  0  0  0  0  0  0  0  0
   -6.4775    1.9146    8.7830 C   0  0  2  0  0  0  0  0  0  0  0  0
   -5.0845    1.5211    9.1005 C   0  0  0  0  0  0  0  0  0  0  0  0
   -4.9161    0.6452   10.0254 O   0  0  0  0  0  0  0  0  0  0  0  0
   -6.9936    2.8671    9.8888 C   0  0  2  0  0  0  0  0  0  0  0  0
   -6.7471    2.2867   11.1483 O   0  0  0  0  0  0  0  0  0  0  0  0
   -8.4466    3.1882    9.6923 C   0  0  0  0  0  0  0  0  0  0  0  0
   -3.9576    2.0567    8.4478 N   0  0  0  0  0  0  0  0  0  0  0  0
   -2.5438    1.7734    8.5213 C   0  0  2  0  0  0  0  0  0  0  0  0
   -1.7678    2.9080    9.0686 C   0  0  0  0  0  0  0  0  0  0  0  0
   -1.1041    3.8033    8.2705 O   0  0  0  0  0  0  0  0  0  0  0  0
   -2.2275    1.4964    7.0713 C   0  0  0  0  0  0  0  0  0  0  0  0
   -3.0615    2.5644    6.3790 C   0  0  0  0  0  0  0  0  0  0  0  0
   -4.0301    3.1007    7.4114 C   0  0  0  0  0  0  0  0  0  0  0  0
   -1.7216    3.0502   10.3151 O   0  0  0  0  0  0  0  0  0  0  0  0
  1  2  1  6
  2  3  1  6
  5  2  1  6
  3  4  2  0
  3  6  1  0
  7  6  1  1
  7  8  1  0
 10  7  1  6
  8  9  2  0
  8 11  1  0
 12 11  1  6
 12 13  1  0
 12 15  1  0
 13 14  2  0
 13 19  1  0
 15 16  1  6
 16 17  2  0
 16 18  1  0
 20 19  1  1
 20 21  1  0
 20 23  1  0
 21 22  2  0
 21 26  1  0
 23 24  1  1
 25 23  1  6
 27 26  1  6
 27 28  1  0
 27 30  1  0
 28 29  2  0
 28 33  1  0
 30 31  1  1
 32 30  1  6
 34 33  1  1
 34 35  1  0
 34 37  1  0
 35 36  2  0
 35 40  1  0
 37 38  1  1
 39 37  1  6
 40 41  1  0
 46 40  1  1
 41 42  1  6
 44 41  1  1
 42 43  1  0
 42 47  2  0
 44 45  1  0
 45 46  1  6
M  CHG  1   1   1
M  END
$$$$
