
     RDKit          3D

 47 47  0  0  0  0  0  0  0  0999 V2000
  -17.1944   -9.0611    4.6130 N   0  0  0  0  0  4  0  0  0  0  0  0
  -16.4169   -8.4216    5.6560 C   0  0  2  0  0  0  0  0  0  0  0  0
  -15.1336   -7.9729    5.0731 C   0  0  0  0  0  0  0  0  0  0  0  0
  -14.4498   -8.7716    4.3780 O   0  0  0  0  0  0  0  0  0  0  0  0
  -16.2317   -9.3461    6.8260 C   0  0  0  0  0  0  0  0  0  0  0  0
  -14.5970   -6.6807    5.2379 N   0  0  0  0  0  0  0  0  0  0  0  0
  -13.3551   -6.2135    4.6312 C   0  0  2  0  0  0  0  0  0  0  0  0
  -12.2094   -6.2518    5.5431 C   0  0  0  0  0  0  0  0  0  0  0  0
  -11.8921   -7.3621    6.0874 O   0  0  0  0  0  0  0  0  0  0  0  0
  -13.5558   -4.7850    4.1213 C   0  0  0  0  0  0  0  0  0  0  0  0
  -11.4730   -5.0958    5.8190 N   0  0  0  0  0  0  0  0  0  0  0  0
  -10.2856   -5.1621    6.6557 C   0  0  2  0  0  0  0  0  0  0  0  0
   -9.6936   -3.7965    6.6212 C   0  0  0  0  0  0  0  0  0  0  0  0
   -9.0860   -3.4638    5.5450 O   0  0  0  0  0  0  0  0  0  0  0  0
   -9.2273   -6.0459    5.9981 C   0  0  0  0  0  0  0  0  0  0  0  0
   -8.1070   -6.1097    6.9814 C   0  0  0  0  0  0  0  0  0  0  0  0
   -7.2980   -7.0569    7.0142 O   0  0  0  0  0  0  0  0  0  0  0  0
   -7.9528   -5.0756    7.9002 O   0  0  0  0  0  0  0  0  0  0  0  0
   -9.7556   -2.8555    7.6802 N   0  0  0  0  0  0  0  0  0  0  0  0
   -9.1189   -1.5619    7.3999 C   0  0  2  0  0  0  0  0  0  0  0  0
   -7.7539   -1.4627    7.9178 C   0  0  0  0  0  0  0  0  0  0  0  0
   -7.2327   -2.2367    8.7749 O   0  0  0  0  0  0  0  0  0  0  0  0
  -10.0347   -0.5613    8.1549 C   0  0  2  0  0  0  0  0  0  0  0  0
  -10.0597   -0.9020    9.5052 O   0  0  0  0  0  0  0  0  0  0  0  0
  -11.4270   -0.5580    7.5655 C   0  0  0  0  0  0  0  0  0  0  0  0
   -6.9391   -0.3987    7.4083 N   0  0  0  0  0  0  0  0  0  0  0  0
   -5.5991   -0.1775    7.9762 C   0  0  2  0  0  0  0  0  0  0  0  0
   -5.5942    1.1606    8.5693 C   0  0  0  0  0  0  0  0  0  0  0  0
   -6.3328    2.1031    8.1935 O   0  0  0  0  0  0  0  0  0  0  0  0
   -4.6011   -0.2388    6.7932 C   0  0  2  0  0  0  0  0  0  0  0  0
   -5.0220    0.6201    5.7781 O   0  0  0  0  0  0  0  0  0  0  0  0
   -4.5143   -1.6364    6.2257 C   0  0  0  0  0  0  0  0  0  0  0  0
   -4.6879    1.4431    9.6614 N   0  0  0  0  0  0  0  0  0  0  0  0
   -4.6576    2.7782   10.1666 C   0  0  2  0  0  0  0  0  0  0  0  0
   -3.7863    3.6867    9.4558 C   0  0  0  0  0  0  0  0  0  0  0  0
   -2.8009    3.0991    8.8079 O   0  0  0  0  0  0  0  0  0  0  0  0
   -4.1550    2.6324   11.6352 C   0  0  2  0  0  0  0  0  0  0  0  0
   -2.9761    1.8980   11.5468 O   0  0  0  0  0  0  0  0  0  0  0  0
   -5.1928    1.9503   12.4648 C   0  0  0  0  0  0  0  0  0  0  0  0
   -3.8726    5.0958    9.3803 N   0  0  0  0  0  0  0  0  0  0  0  0
   -3.0128    5.8529    8.4682 C   0  0  2  0  0  0  0  0  0  0  0  0
   -1.6434    5.9649    9.0409 C   0  0  0  0  0  0  0  0  0  0  0  0
   -1.0199    7.1741    9.1442 O   0  0  0  0  0  0  0  0  0  0  0  0
   -3.6527    7.1762    8.2714 C   0  0  0  0  0  0  0  0  0  0  0  0
   -4.9491    7.1222    8.9982 C   0  0  0  0  0  0  0  0  0  0  0  0
   -4.7539    6.0042   10.0377 C   0  0  0  0  0  0  0  0  0  0  0  0
   -1.0710    4.9254    9.4278 O   0  0  0  0  0  0  0  0  0  0  0  0
  1  2  1  0
  2  3  1  0
  2  5  1  1
  3  4  2  0
  3  6  1  0
  6  7  1  0
  7  8  1  0
  7 10  1  1
  8  9  2  0
  8 11  1  0
 11 12  1  0
 12 13  1  0
 12 15  1  6
 13 14  2  0
 13 19  1  0
 15 16  1  0
 16 17  2  0
 16 18  1  0
 20 19  1  1
 20 21  1  0
 20 23  1  0
 21 22  2  0
 21 26  1  0
 23 24  1  0
 23 25  1  6
 27 26  1  6
 27 28  1  0
 27 30  1  0
 28 29  2  0
 28 33  1  0
 30 31  1  0
 30 32  1  6
 34 33  1  6
 34 35  1  0
 34 37  1  0
 35 36  2  0
 35 40  1  0
 37 38  1  0
 37 39  1  1
 40 41  1  0
 40 46  1  0
 41 42  1  1
 41 44  1  0
 42 43  1  0
 42 47  2  0
 44 45  1  0
 45 46  1  0
M  CHG  1   1   1
M  END
$$$$
