
     RDKit          3D

 47 47  0  0  0  0  0  0  0  0999 V2000
  -19.8011   -6.7280    1.4864 N   0  0  0  0  0  4  0  0  0  0  0  0
  -18.4105   -7.3014    1.4791 C   0  0  2  0  0  0  0  0  0  0  0  0
  -18.1588   -7.9279    2.8039 C   0  0  0  0  0  0  0  0  0  0  0  0
  -18.5998   -9.0783    3.0182 O   0  0  0  0  0  0  0  0  0  0  0  0
  -17.4641   -6.1579    1.2174 C   0  0  0  0  0  0  0  0  0  0  0  0
  -17.4455   -7.2770    3.8257 N   0  0  0  0  0  0  0  0  0  0  0  0
  -16.7114   -7.9147    4.9010 C   0  0  2  0  0  0  0  0  0  0  0  0
  -15.8054   -6.9021    5.5002 C   0  0  0  0  0  0  0  0  0  0  0  0
  -16.3067   -6.0076    6.2789 O   0  0  0  0  0  0  0  0  0  0  0  0
  -15.7366   -8.9497    4.2717 C   0  0  0  0  0  0  0  0  0  0  0  0
  -14.4069   -6.8496    5.2666 N   0  0  0  0  0  0  0  0  0  0  0  0
  -13.6238   -5.8764    6.0088 C   0  0  2  0  0  0  0  0  0  0  0  0
  -12.1639   -6.0402    5.8042 C   0  0  0  0  0  0  0  0  0  0  0  0
  -11.7089   -6.9103    5.0030 O   0  0  0  0  0  0  0  0  0  0  0  0
  -13.9682   -6.1407    7.4889 C   0  0  0  0  0  0  0  0  0  0  0  0
  -13.4856   -7.4981    7.8393 C   0  0  0  0  0  0  0  0  0  0  0  0
  -12.3120   -7.7484    8.1946 O   0  0  0  0  0  0  0  0  0  0  0  0
  -14.3775   -8.5819    7.7747 O   0  0  0  0  0  0  0  0  0  0  0  0
  -11.3122   -5.1787    6.5392 N   0  0  0  0  0  0  0  0  0  0  0  0
   -9.8984   -4.9681    6.1818 C   0  0  2  0  0  0  0  0  0  0  0  0
   -9.3029   -4.2075    7.2614 C   0  0  0  0  0  0  0  0  0  0  0  0
   -9.8273   -4.3392    8.4338 O   0  0  0  0  0  0  0  0  0  0  0  0
   -9.8758   -4.1740    4.8514 C   0  0  2  0  0  0  0  0  0  0  0  0
  -10.4502   -4.9891    3.8614 O   0  0  0  0  0  0  0  0  0  0  0  0
   -8.4129   -4.0718    4.4579 C   0  0  0  0  0  0  0  0  0  0  0  0
   -8.1944   -3.3139    7.2038 N   0  0  0  0  0  0  0  0  0  0  0  0
   -7.8604   -2.5229    8.3516 C   0  0  2  0  0  0  0  0  0  0  0  0
   -7.3930   -1.1620    8.0394 C   0  0  0  0  0  0  0  0  0  0  0  0
   -6.5866   -0.9711    7.0986 O   0  0  0  0  0  0  0  0  0  0  0  0
   -6.8606   -3.2087    9.2571 C   0  0  2  0  0  0  0  0  0  0  0  0
   -5.7538   -3.6021    8.5106 O   0  0  0  0  0  0  0  0  0  0  0  0
   -7.4994   -4.3765    9.9241 C   0  0  0  0  0  0  0  0  0  0  0  0
   -7.8394   -0.0175    8.7967 N   0  0  0  0  0  0  0  0  0  0  0  0
   -7.3183    1.3212    8.5927 C   0  0  2  0  0  0  0  0  0  0  0  0
   -6.0033    1.4508    9.2635 C   0  0  0  0  0  0  0  0  0  0  0  0
   -5.8200    0.7694   10.3373 O   0  0  0  0  0  0  0  0  0  0  0  0
   -8.3223    2.2871    9.2675 C   0  0  2  0  0  0  0  0  0  0  0  0
   -7.7813    3.5875    9.2675 O   0  0  0  0  0  0  0  0  0  0  0  0
   -8.6728    1.8238   10.6516 C   0  0  0  0  0  0  0  0  0  0  0  0
   -4.9655    2.2746    8.7869 N   0  0  0  0  0  0  0  0  0  0  0  0
   -3.5287    2.1365    8.7526 C   0  0  2  0  0  0  0  0  0  0  0  0
   -2.8447    3.1335    9.6053 C   0  0  0  0  0  0  0  0  0  0  0  0
   -1.5519    2.9777   10.0335 O   0  0  0  0  0  0  0  0  0  0  0  0
   -3.2526    2.3394    7.2823 C   0  0  0  0  0  0  0  0  0  0  0  0
   -4.2185    3.4686    6.9546 C   0  0  0  0  0  0  0  0  0  0  0  0
   -5.1877    3.5656    8.1135 C   0  0  0  0  0  0  0  0  0  0  0  0
   -3.4805    4.1614    9.9448 O   0  0  0  0  0  0  0  0  0  0  0  0
  1  2  1  6
  2  3  1  1
  5  2  1  6
  3  4  2  0
  3  6  1  0
  7  6  1  6
  7  8  1  0
 10  7  1  6
  8  9  2  0
  8 11  1  0
 12 11  1  6
 12 13  1  0
 12 15  1  0
 13 14  2  0
 13 19  1  0
 15 16  1  6
 16 17  2  0
 16 18  1  0
 20 19  1  1
 20 21  1  0
 20 23  1  0
 21 22  2  0
 21 26  1  0
 23 24  1  6
 25 23  1  6
 27 26  1  6
 27 28  1  0
 27 30  1  0
 28 29  2  0
 28 33  1  0
 30 31  1  6
 32 30  1  6
 34 33  1  1
 34 35  1  0
 34 37  1  0
 35 36  2  0
 35 40  1  0
 37 38  1  1
 39 37  1  6
 40 41  1  0
 46 40  1  1
 41 42  1  1
 44 41  1  1
 42 43  1  0
 42 47  2  0
 44 45  1  0
 45 46  1  6
M  CHG  1   1   1
M  END
$$$$
