
     RDKit          3D

 47 47  0  0  0  0  0  0  0  0999 V2000
  -15.5120  -11.5327    2.9092 N   0  0  0  0  0  4  0  0  0  0  0  0
  -15.5905  -10.3286    3.7125 C   0  0  2  0  0  0  0  0  0  0  0  0
  -14.2188   -9.8153    3.9197 C   0  0  0  0  0  0  0  0  0  0  0  0
  -13.5429   -9.4217    2.9313 O   0  0  0  0  0  0  0  0  0  0  0  0
  -16.3122  -10.5948    5.0033 C   0  0  0  0  0  0  0  0  0  0  0  0
  -13.5866   -9.7278    5.1757 N   0  0  0  0  0  0  0  0  0  0  0  0
  -12.2157   -9.2752    5.3857 C   0  0  2  0  0  0  0  0  0  0  0  0
  -12.1096   -7.8391    5.6542 C   0  0  0  0  0  0  0  0  0  0  0  0
  -11.1341   -7.1884    5.1493 O   0  0  0  0  0  0  0  0  0  0  0  0
  -11.3797   -9.6286    4.1539 C   0  0  0  0  0  0  0  0  0  0  0  0
  -13.0552   -7.1862    6.4506 N   0  0  0  0  0  0  0  0  0  0  0  0
  -13.1861   -5.7389    6.4002 C   0  0  2  0  0  0  0  0  0  0  0  0
  -11.9988   -5.2033    7.1213 C   0  0  0  0  0  0  0  0  0  0  0  0
  -11.5983   -5.8703    8.1376 O   0  0  0  0  0  0  0  0  0  0  0  0
  -14.3742   -5.2882    7.2480 C   0  0  0  0  0  0  0  0  0  0  0  0
  -14.4085   -3.8027    7.1124 C   0  0  0  0  0  0  0  0  0  0  0  0
  -14.2797   -3.2274    6.0146 O   0  0  0  0  0  0  0  0  0  0  0  0
  -14.5914   -3.0229    8.2508 O   0  0  0  0  0  0  0  0  0  0  0  0
  -11.2936   -4.0256    6.7658 N   0  0  0  0  0  0  0  0  0  0  0  0
  -10.1542   -3.6981    7.6330 C   0  0  2  0  0  0  0  0  0  0  0  0
   -9.4940   -2.4425    7.2742 C   0  0  0  0  0  0  0  0  0  0  0  0
   -9.2569   -2.0453    6.0946 O   0  0  0  0  0  0  0  0  0  0  0  0
   -9.1846   -4.8844    7.3832 C   0  0  2  0  0  0  0  0  0  0  0  0
   -8.6898   -4.7977    6.0840 O   0  0  0  0  0  0  0  0  0  0  0  0
   -9.8815   -6.2057    7.6163 C   0  0  0  0  0  0  0  0  0  0  0  0
   -9.0834   -1.5907    8.3518 N   0  0  0  0  0  0  0  0  0  0  0  0
   -8.4164   -0.3132    8.0512 C   0  0  2  0  0  0  0  0  0  0  0  0
   -7.0042   -0.6082    7.8043 C   0  0  0  0  0  0  0  0  0  0  0  0
   -6.4015   -1.6109    8.2587 O   0  0  0  0  0  0  0  0  0  0  0  0
   -8.5624    0.5707    9.3147 C   0  0  2  0  0  0  0  0  0  0  0  0
   -8.0599   -0.1086   10.4242 O   0  0  0  0  0  0  0  0  0  0  0  0
  -10.0115    0.9058    9.5805 C   0  0  0  0  0  0  0  0  0  0  0  0
   -6.2281    0.2992    6.9869 N   0  0  0  0  0  0  0  0  0  0  0  0
   -4.8393    0.0137    6.8185 C   0  0  2  0  0  0  0  0  0  0  0  0
   -3.9769    0.5051    7.8694 C   0  0  0  0  0  0  0  0  0  0  0  0
   -4.5203    1.4363    8.6270 O   0  0  0  0  0  0  0  0  0  0  0  0
   -4.4545    0.7068    5.4760 C   0  0  2  0  0  0  0  0  0  0  0  0
   -3.1173    0.3824    5.2674 O   0  0  0  0  0  0  0  0  0  0  0  0
   -4.6761    2.1801    5.5801 C   0  0  0  0  0  0  0  0  0  0  0  0
   -2.6531    0.1079    8.1665 N   0  0  0  0  0  0  0  0  0  0  0  0
   -1.9917    0.5573    9.3933 C   0  0  2  0  0  0  0  0  0  0  0  0
   -1.5363    1.9656    9.2350 C   0  0  0  0  0  0  0  0  0  0  0  0
   -1.0086    2.6576   10.2859 O   0  0  0  0  0  0  0  0  0  0  0  0
   -0.8662   -0.3756    9.6428 C   0  0  0  0  0  0  0  0  0  0  0  0
   -0.9631   -1.4309    8.5994 C   0  0  0  0  0  0  0  0  0  0  0  0
   -1.7739   -0.7722    7.4691 C   0  0  0  0  0  0  0  0  0  0  0  0
   -1.6467    2.5067    8.1157 O   0  0  0  0  0  0  0  0  0  0  0  0
  1  2  1  0
  2  3  1  0
  2  5  1  1
  3  4  2  0
  3  6  1  0
  6  7  1  0
  7  8  1  0
  7 10  1  6
  8  9  2  0
  8 11  1  0
 11 12  1  0
 12 13  1  0
 12 15  1  1
 13 14  2  0
 13 19  1  0
 15 16  1  0
 16 17  2  0
 16 18  1  0
 20 19  1  6
 20 21  1  0
 20 23  1  0
 21 22  2  0
 21 26  1  0
 23 24  1  0
 23 25  1  6
 27 26  1  1
 27 28  1  0
 27 30  1  0
 28 29  2  0
 28 33  1  0
 30 31  1  0
 30 32  1  1
 34 33  1  1
 34 35  1  0
 34 37  1  0
 35 36  2  0
 35 40  1  0
 37 38  1  0
 37 39  1  1
 40 41  1  0
 40 46  1  0
 41 42  1  6
 41 44  1  0
 42 43  1  0
 42 47  2  0
 44 45  1  0
 45 46  1  0
M  CHG  1   1   1
M  END
$$$$
