
     RDKit          3D

 47 47  0  0  0  0  0  0  0  0999 V2000
  -13.7063  -10.5161    4.9421 N   0  0  0  0  0  4  0  0  0  0  0  0
  -12.8757   -9.4676    4.3836 C   0  0  2  0  0  0  0  0  0  0  0  0
  -13.4161   -8.1616    4.8202 C   0  0  0  0  0  0  0  0  0  0  0  0
  -14.6242   -7.8794    4.5981 O   0  0  0  0  0  0  0  0  0  0  0  0
  -12.7937   -9.5916    2.8883 C   0  0  0  0  0  0  0  0  0  0  0  0
  -12.6629   -7.1753    5.4873 N   0  0  0  0  0  0  0  0  0  0  0  0
  -13.2238   -5.9782    6.1044 C   0  0  2  0  0  0  0  0  0  0  0  0
  -12.2111   -4.9979    6.5033 C   0  0  0  0  0  0  0  0  0  0  0  0
  -11.8482   -4.9500    7.7264 O   0  0  0  0  0  0  0  0  0  0  0  0
  -14.0494   -6.3869    7.3260 C   0  0  0  0  0  0  0  0  0  0  0  0
  -11.6491   -4.1251    5.5668 N   0  0  0  0  0  0  0  0  0  0  0  0
  -11.4854   -2.7148    5.8810 C   0  0  2  0  0  0  0  0  0  0  0  0
  -10.4701   -2.6612    6.9685 C   0  0  0  0  0  0  0  0  0  0  0  0
  -10.7309   -1.8907    7.9567 O   0  0  0  0  0  0  0  0  0  0  0  0
  -12.7568   -2.1689    6.5282 C   0  0  0  0  0  0  0  0  0  0  0  0
  -12.5287   -0.7001    6.6574 C   0  0  0  0  0  0  0  0  0  0  0  0
  -13.3520    0.0600    7.2025 O   0  0  0  0  0  0  0  0  0  0  0  0
  -11.3539   -0.1504    6.1524 O   0  0  0  0  0  0  0  0  0  0  0  0
   -9.2551   -3.3922    6.9845 N   0  0  0  0  0  0  0  0  0  0  0  0
   -8.3896   -3.1333    8.1427 C   0  0  2  0  0  0  0  0  0  0  0  0
   -7.3261   -2.1666    7.8677 C   0  0  0  0  0  0  0  0  0  0  0  0
   -7.0084   -1.7261    6.7230 O   0  0  0  0  0  0  0  0  0  0  0  0
   -7.7651   -4.5275    8.4190 C   0  0  2  0  0  0  0  0  0  0  0  0
   -6.7623   -4.7671    7.4825 O   0  0  0  0  0  0  0  0  0  0  0  0
   -8.8225   -5.6073    8.3768 C   0  0  0  0  0  0  0  0  0  0  0  0
   -6.5836   -1.6768    8.9921 N   0  0  0  0  0  0  0  0  0  0  0  0
   -5.4735   -0.7353    8.7721 C   0  0  2  0  0  0  0  0  0  0  0  0
   -4.2623   -1.3593    9.3069 C   0  0  0  0  0  0  0  0  0  0  0  0
   -4.2511   -2.1880   10.2492 O   0  0  0  0  0  0  0  0  0  0  0  0
   -5.8123    0.5444    9.5762 C   0  0  2  0  0  0  0  0  0  0  0  0
   -6.0041    0.2191   10.9187 O   0  0  0  0  0  0  0  0  0  0  0  0
   -7.0758    1.1931    9.0607 C   0  0  0  0  0  0  0  0  0  0  0  0
   -2.9803   -1.0156    8.7306 N   0  0  0  0  0  0  0  0  0  0  0  0
   -1.8162   -1.6071    9.3081 C   0  0  2  0  0  0  0  0  0  0  0  0
   -0.7626   -0.6810    9.6575 C   0  0  0  0  0  0  0  0  0  0  0  0
   -1.0270    0.5769    9.3677 O   0  0  0  0  0  0  0  0  0  0  0  0
   -1.2914   -2.5899    8.2175 C   0  0  2  0  0  0  0  0  0  0  0  0
   -0.7711   -1.7781    7.2139 O   0  0  0  0  0  0  0  0  0  0  0  0
   -2.4066   -3.4563    7.7315 C   0  0  0  0  0  0  0  0  0  0  0  0
    0.4841   -0.9673   10.2594 N   0  0  0  0  0  0  0  0  0  0  0  0
    1.3301    0.1078   10.7818 C   0  0  2  0  0  0  0  0  0  0  0  0
    2.0268    0.7932    9.6590 C   0  0  0  0  0  0  0  0  0  0  0  0
    1.8159    0.4168    8.3646 O   0  0  0  0  0  0  0  0  0  0  0  0
    2.2773   -0.5151   11.7380 C   0  0  0  0  0  0  0  0  0  0  0  0
    1.8855   -1.9463   11.8370 C   0  0  0  0  0  0  0  0  0  0  0  0
    1.1120   -2.2179   10.5345 C   0  0  0  0  0  0  0  0  0  0  0  0
    2.8134    1.7252    9.9243 O   0  0  0  0  0  0  0  0  0  0  0  0
  1  2  1  0
  2  3  1  0
  2  5  1  6
  3  4  2  0
  3  6  1  0
  6  7  1  0
  7  8  1  0
  7 10  1  1
  8  9  2  0
  8 11  1  0
 11 12  1  0
 12 13  1  0
 12 15  1  1
 13 14  2  0
 13 19  1  0
 15 16  1  0
 16 17  2  0
 16 18  1  0
 20 19  1  6
 20 21  1  0
 20 23  1  0
 21 22  2  0
 21 26  1  0
 23 24  1  0
 23 25  1  6
 27 26  1  1
 27 28  1  0
 27 30  1  0
 28 29  2  0
 28 33  1  0
 30 31  1  0
 30 32  1  6
 34 33  1  6
 34 35  1  0
 34 37  1  0
 35 36  2  0
 35 40  1  0
 37 38  1  0
 37 39  1  6
 40 41  1  0
 40 46  1  0
 41 42  1  6
 41 44  1  0
 42 43  1  0
 42 47  2  0
 44 45  1  0
 45 46  1  0
M  CHG  1   1   1
M  END
$$$$
