
     RDKit          3D

 47 47  0  0  0  0  0  0  0  0999 V2000
  -15.3674  -12.0978    1.1271 N   0  0  0  0  0  4  0  0  0  0  0  0
  -14.2496  -11.3968    1.7275 C   0  0  2  0  0  0  0  0  0  0  0  0
  -14.7235  -10.7321    2.9610 C   0  0  0  0  0  0  0  0  0  0  0  0
  -15.8658  -11.0050    3.4186 O   0  0  0  0  0  0  0  0  0  0  0  0
  -13.6352  -10.4359    0.7492 C   0  0  0  0  0  0  0  0  0  0  0  0
  -13.9747   -9.7871    3.6898 N   0  0  0  0  0  0  0  0  0  0  0  0
  -14.4423   -9.1056    4.8921 C   0  0  2  0  0  0  0  0  0  0  0  0
  -14.3170   -7.6478    4.8230 C   0  0  0  0  0  0  0  0  0  0  0  0
  -15.1810   -6.9862    4.1556 O   0  0  0  0  0  0  0  0  0  0  0  0
  -13.6606   -9.6298    6.0984 C   0  0  0  0  0  0  0  0  0  0  0  0
  -13.2705   -6.9860    5.4723 N   0  0  0  0  0  0  0  0  0  0  0  0
  -13.3113   -5.5436    5.6519 C   0  0  2  0  0  0  0  0  0  0  0  0
  -12.2276   -5.2294    6.6232 C   0  0  0  0  0  0  0  0  0  0  0  0
  -11.6902   -6.2248    7.2220 O   0  0  0  0  0  0  0  0  0  0  0  0
  -14.5934   -5.1397    6.3775 C   0  0  0  0  0  0  0  0  0  0  0  0
  -15.6322   -5.0466    5.3105 C   0  0  0  0  0  0  0  0  0  0  0  0
  -16.8517   -5.0145    5.5643 O   0  0  0  0  0  0  0  0  0  0  0  0
  -15.2318   -4.9928    3.9785 O   0  0  0  0  0  0  0  0  0  0  0  0
  -11.7581   -3.9259    6.9253 N   0  0  0  0  0  0  0  0  0  0  0  0
  -10.3722   -3.8610    7.4077 C   0  0  2  0  0  0  0  0  0  0  0  0
   -9.9478   -2.5092    7.7731 C   0  0  0  0  0  0  0  0  0  0  0  0
  -10.6908   -1.6134    8.2737 O   0  0  0  0  0  0  0  0  0  0  0  0
   -9.5604   -4.3451    6.1763 C   0  0  2  0  0  0  0  0  0  0  0  0
   -8.2149   -4.4292    6.5266 O   0  0  0  0  0  0  0  0  0  0  0  0
   -9.7626   -3.4159    5.0008 C   0  0  0  0  0  0  0  0  0  0  0  0
   -8.5726   -2.1739    7.5454 N   0  0  0  0  0  0  0  0  0  0  0  0
   -7.9910   -1.0035    8.2230 C   0  0  2  0  0  0  0  0  0  0  0  0
   -6.6321   -0.8334    7.7065 C   0  0  0  0  0  0  0  0  0  0  0  0
   -6.1478   -1.4981    6.7586 O   0  0  0  0  0  0  0  0  0  0  0  0
   -7.9475   -1.3426    9.7336 C   0  0  2  0  0  0  0  0  0  0  0  0
   -9.2317   -1.6477   10.1841 O   0  0  0  0  0  0  0  0  0  0  0  0
   -7.4277   -0.1749   10.5393 C   0  0  0  0  0  0  0  0  0  0  0  0
   -5.7686    0.1584    8.3104 N   0  0  0  0  0  0  0  0  0  0  0  0
   -4.6395    0.5991    7.5558 C   0  0  2  0  0  0  0  0  0  0  0  0
   -3.8335    1.6178    8.1901 C   0  0  0  0  0  0  0  0  0  0  0  0
   -4.4832    2.7303    8.4668 O   0  0  0  0  0  0  0  0  0  0  0  0
   -5.2455    1.1735    6.2391 C   0  0  2  0  0  0  0  0  0  0  0  0
   -6.1434    2.1551    6.6480 O   0  0  0  0  0  0  0  0  0  0  0  0
   -5.9059    0.0822    5.4622 C   0  0  0  0  0  0  0  0  0  0  0  0
   -2.4646    1.5541    8.5373 N   0  0  0  0  0  0  0  0  0  0  0  0
   -1.8889    2.4979    9.4977 C   0  0  2  0  0  0  0  0  0  0  0  0
   -1.6633    3.8138    8.8395 C   0  0  0  0  0  0  0  0  0  0  0  0
   -1.3445    3.8936    7.5152 O   0  0  0  0  0  0  0  0  0  0  0  0
   -0.6301    1.8922    9.9956 C   0  0  0  0  0  0  0  0  0  0  0  0
   -0.5528    0.5373    9.3872 C   0  0  0  0  0  0  0  0  0  0  0  0
   -1.4531    0.6295    8.1424 C   0  0  0  0  0  0  0  0  0  0  0  0
   -1.7713    4.8510    9.5254 O   0  0  0  0  0  0  0  0  0  0  0  0
  1  2  1  0
  2  3  1  0
  2  5  1  6
  3  4  2  0
  3  6  1  0
  6  7  1  0
  7  8  1  0
  7 10  1  1
  8  9  2  0
  8 11  1  0
 11 12  1  0
 12 13  1  0
 12 15  1  1
 13 14  2  0
 13 19  1  0
 15 16  1  0
 16 17  2  0
 16 18  1  0
 20 19  1  6
 20 21  1  0
 20 23  1  0
 21 22  2  0
 21 26  1  0
 23 24  1  0
 23 25  1  6
 27 26  1  6
 27 28  1  0
 27 30  1  0
 28 29  2  0
 28 33  1  0
 30 31  1  0
 30 32  1  1
 34 33  1  1
 34 35  1  0
 34 37  1  0
 35 36  2  0
 35 40  1  0
 37 38  1  0
 37 39  1  1
 40 41  1  0
 40 46  1  0
 41 42  1  6
 41 44  1  0
 42 43  1  0
 42 47  2  0
 44 45  1  0
 45 46  1  0
M  CHG  1   1   1
M  END
$$$$
