
     RDKit          3D

 47 47  0  0  0  0  0  0  0  0999 V2000
  -10.3158   -9.5537    5.4213 N   0  0  0  0  0  4  0  0  0  0  0  0
  -10.0021   -9.5155    4.0066 C   0  0  2  0  0  0  0  0  0  0  0  0
  -11.2709   -9.5344    3.2464 C   0  0  0  0  0  0  0  0  0  0  0  0
  -11.2717   -9.2265    2.0242 O   0  0  0  0  0  0  0  0  0  0  0  0
   -9.0844  -10.6453    3.6331 C   0  0  0  0  0  0  0  0  0  0  0  0
  -12.5201   -9.8813    3.7978 N   0  0  0  0  0  0  0  0  0  0  0  0
  -13.3062   -9.0236    4.6781 C   0  0  2  0  0  0  0  0  0  0  0  0
  -12.6484   -7.7540    4.9963 C   0  0  0  0  0  0  0  0  0  0  0  0
  -11.4561   -7.7753    5.4523 O   0  0  0  0  0  0  0  0  0  0  0  0
  -13.6091   -9.7813    5.9724 C   0  0  0  0  0  0  0  0  0  0  0  0
  -13.3094   -6.5365    4.8085 N   0  0  0  0  0  0  0  0  0  0  0  0
  -13.6570   -5.7045    5.9492 C   0  0  2  0  0  0  0  0  0  0  0  0
  -12.5079   -4.7760    6.1337 C   0  0  0  0  0  0  0  0  0  0  0  0
  -12.7854   -3.5280    6.1952 O   0  0  0  0  0  0  0  0  0  0  0  0
  -13.6707   -6.5420    7.2267 C   0  0  0  0  0  0  0  0  0  0  0  0
  -14.0254   -5.5860    8.3158 C   0  0  0  0  0  0  0  0  0  0  0  0
  -15.1830   -5.4826    8.7653 O   0  0  0  0  0  0  0  0  0  0  0  0
  -13.0310   -4.7754    8.8558 O   0  0  0  0  0  0  0  0  0  0  0  0
  -11.1509   -5.1722    6.2441 N   0  0  0  0  0  0  0  0  0  0  0  0
  -10.1707   -4.1023    6.0159 C   0  0  2  0  0  0  0  0  0  0  0  0
   -9.6780   -3.4936    7.2520 C   0  0  0  0  0  0  0  0  0  0  0  0
  -10.3999   -3.0573    8.1974 O   0  0  0  0  0  0  0  0  0  0  0  0
  -10.9897   -3.0564    5.2126 C   0  0  2  0  0  0  0  0  0  0  0  0
  -11.8479   -2.3889    6.0833 O   0  0  0  0  0  0  0  0  0  0  0  0
  -11.7560   -3.7207    4.0913 C   0  0  0  0  0  0  0  0  0  0  0  0
   -8.2565   -3.3848    7.4035 N   0  0  0  0  0  0  0  0  0  0  0  0
   -7.7037   -2.7448    8.6085 C   0  0  2  0  0  0  0  0  0  0  0  0
   -7.0577   -1.5023    8.1828 C   0  0  0  0  0  0  0  0  0  0  0  0
   -6.6907   -1.2633    7.0068 O   0  0  0  0  0  0  0  0  0  0  0  0
   -6.6495   -3.7222    9.1850 C   0  0  2  0  0  0  0  0  0  0  0  0
   -5.8160   -4.1720    8.1612 O   0  0  0  0  0  0  0  0  0  0  0  0
   -7.3103   -4.9234    9.8202 C   0  0  0  0  0  0  0  0  0  0  0  0
   -6.8133   -0.4649    9.1617 N   0  0  0  0  0  0  0  0  0  0  0  0
   -6.0773    0.6829    8.7384 C   0  0  2  0  0  0  0  0  0  0  0  0
   -4.7627    0.8226    9.3233 C   0  0  0  0  0  0  0  0  0  0  0  0
   -4.5899    0.1440   10.4395 O   0  0  0  0  0  0  0  0  0  0  0  0
   -6.9584    1.8958    9.1666 C   0  0  2  0  0  0  0  0  0  0  0  0
   -7.0653    1.7992   10.5508 O   0  0  0  0  0  0  0  0  0  0  0  0
   -8.2854    1.8291    8.4845 C   0  0  0  0  0  0  0  0  0  0  0  0
   -3.6727    1.5843    8.8434 N   0  0  0  0  0  0  0  0  0  0  0  0
   -2.3076    1.3102    9.2971 C   0  0  2  0  0  0  0  0  0  0  0  0
   -2.1052    1.8743   10.6596 C   0  0  0  0  0  0  0  0  0  0  0  0
   -1.1674    1.3561   11.5044 O   0  0  0  0  0  0  0  0  0  0  0  0
   -1.3922    1.9094    8.2960 C   0  0  0  0  0  0  0  0  0  0  0  0
   -2.2564    2.4340    7.2053 C   0  0  0  0  0  0  0  0  0  0  0  0
   -3.6307    2.6266    7.8708 C   0  0  0  0  0  0  0  0  0  0  0  0
   -2.8139    2.8369   11.0188 O   0  0  0  0  0  0  0  0  0  0  0  0
  1  2  1  0
  2  3  1  0
  2  5  1  6
  3  4  2  0
  3  6  1  0
  6  7  1  0
  7  8  1  0
  7 10  1  1
  8  9  2  0
  8 11  1  0
 11 12  1  0
 12 13  1  0
 12 15  1  1
 13 14  2  0
 13 19  1  0
 15 16  1  0
 16 17  2  0
 16 18  1  0
 20 19  1  1
 20 21  1  0
 20 23  1  0
 21 22  2  0
 21 26  1  0
 23 24  1  0
 23 25  1  6
 27 26  1  6
 27 28  1  0
 27 30  1  0
 28 29  2  0
 28 33  1  0
 30 31  1  0
 30 32  1  6
 34 33  1  1
 34 35  1  0
 34 37  1  0
 35 36  2  0
 35 40  1  0
 37 38  1  0
 37 39  1  6
 40 41  1  0
 40 46  1  0
 41 42  1  1
 41 44  1  0
 42 43  1  0
 42 47  2  0
 44 45  1  0
 45 46  1  0
M  CHG  1   1   1
M  END
$$$$
