
     RDKit          3D

 47 47  0  0  0  0  0  0  0  0999 V2000
  -16.5142  -10.5415    5.1092 N   0  0  0  0  0  4  0  0  0  0  0  0
  -16.0163  -10.1978    3.7321 C   0  0  2  0  0  0  0  0  0  0  0  0
  -15.6056   -8.7686    3.7292 C   0  0  0  0  0  0  0  0  0  0  0  0
  -15.2950   -8.2349    2.6418 O   0  0  0  0  0  0  0  0  0  0  0  0
  -17.1546  -10.4496    2.7768 C   0  0  0  0  0  0  0  0  0  0  0  0
  -15.5515   -7.9942    4.9014 N   0  0  0  0  0  0  0  0  0  0  0  0
  -15.2563   -6.5770    4.9814 C   0  0  2  0  0  0  0  0  0  0  0  0
  -13.9546   -6.4193    5.6784 C   0  0  0  0  0  0  0  0  0  0  0  0
  -13.7759   -7.0266    6.7995 O   0  0  0  0  0  0  0  0  0  0  0  0
  -16.2752   -5.9269    5.9595 C   0  0  0  0  0  0  0  0  0  0  0  0
  -12.8813   -5.6309    5.1888 N   0  0  0  0  0  0  0  0  0  0  0  0
  -11.6566   -5.5796    5.9689 C   0  0  2  0  0  0  0  0  0  0  0  0
  -11.4739   -4.2816    6.6631 C   0  0  0  0  0  0  0  0  0  0  0  0
  -11.9535   -3.2105    6.1849 O   0  0  0  0  0  0  0  0  0  0  0  0
  -10.5254   -5.7752    4.9387 C   0  0  0  0  0  0  0  0  0  0  0  0
  -10.5557   -7.1858    4.4831 C   0  0  0  0  0  0  0  0  0  0  0  0
  -11.0359   -7.5521    3.3870 O   0  0  0  0  0  0  0  0  0  0  0  0
  -10.0225   -8.1869    5.3124 O   0  0  0  0  0  0  0  0  0  0  0  0
  -10.7471   -4.3010    7.8793 N   0  0  0  0  0  0  0  0  0  0  0  0
  -10.4388   -3.0761    8.6379 C   0  0  2  0  0  0  0  0  0  0  0  0
   -9.2911   -2.4658    7.9984 C   0  0  0  0  0  0  0  0  0  0  0  0
   -8.8919   -2.9845    6.8855 O   0  0  0  0  0  0  0  0  0  0  0  0
  -10.1139   -3.5067   10.0905 C   0  0  2  0  0  0  0  0  0  0  0  0
   -8.9301   -4.2628   10.0538 O   0  0  0  0  0  0  0  0  0  0  0  0
  -11.1911   -4.5055   10.4744 C   0  0  0  0  0  0  0  0  0  0  0  0
   -8.5258   -1.3481    8.4407 N   0  0  0  0  0  0  0  0  0  0  0  0
   -7.3892   -0.9205    7.6792 C   0  0  2  0  0  0  0  0  0  0  0  0
   -6.7266    0.2876    8.1985 C   0  0  0  0  0  0  0  0  0  0  0  0
   -6.9071    1.3961    7.6413 O   0  0  0  0  0  0  0  0  0  0  0  0
   -7.7111   -0.7334    6.2125 C   0  0  2  0  0  0  0  0  0  0  0  0
   -6.5819   -0.2656    5.5469 O   0  0  0  0  0  0  0  0  0  0  0  0
   -8.8519    0.2112    6.0610 C   0  0  0  0  0  0  0  0  0  0  0  0
   -5.8571    0.2370    9.3490 N   0  0  0  0  0  0  0  0  0  0  0  0
   -5.2304    1.4135    9.9222 C   0  0  2  0  0  0  0  0  0  0  0  0
   -4.0581    1.8018    9.1030 C   0  0  0  0  0  0  0  0  0  0  0  0
   -3.8235    1.1107    8.0455 O   0  0  0  0  0  0  0  0  0  0  0  0
   -4.7422    1.0035   11.3329 C   0  0  2  0  0  0  0  0  0  0  0  0
   -3.6959    0.0694   11.2046 O   0  0  0  0  0  0  0  0  0  0  0  0
   -5.8730    0.4706   12.1637 C   0  0  0  0  0  0  0  0  0  0  0  0
   -3.2036    2.8730    9.4276 N   0  0  0  0  0  0  0  0  0  0  0  0
   -2.1685    3.5686    8.7001 C   0  0  2  0  0  0  0  0  0  0  0  0
   -0.8286    3.3697    9.2950 C   0  0  0  0  0  0  0  0  0  0  0  0
    0.3165    3.3324    8.5425 O   0  0  0  0  0  0  0  0  0  0  0  0
   -2.6478    4.9962    8.8072 C   0  0  0  0  0  0  0  0  0  0  0  0
   -3.1424    5.0334   10.2458 C   0  0  0  0  0  0  0  0  0  0  0  0
   -3.2470    3.5963   10.7098 C   0  0  0  0  0  0  0  0  0  0  0  0
   -0.7456    3.2316   10.5401 O   0  0  0  0  0  0  0  0  0  0  0  0
  1  2  1  6
  2  3  1  1
  5  2  1  6
  3  4  2  0
  3  6  1  0
  7  6  1  1
  7  8  1  0
 10  7  1  6
  8  9  2  0
  8 11  1  0
 12 11  1  6
 12 13  1  0
 12 15  1  0
 13 14  2  0
 13 19  1  0
 15 16  1  6
 16 17  2  0
 16 18  1  0
 20 19  1  6
 20 21  1  0
 20 23  1  0
 21 22  2  0
 21 26  1  0
 23 24  1  6
 25 23  1  6
 27 26  1  1
 27 28  1  0
 27 30  1  0
 28 29  2  0
 28 33  1  0
 30 31  1  6
 32 30  1  6
 34 33  1  6
 34 35  1  0
 34 37  1  0
 35 36  2  0
 35 40  1  0
 37 38  1  6
 39 37  1  6
 40 41  1  0
 46 40  1  1
 41 42  1  1
 44 41  1  1
 42 43  1  0
 42 47  2  0
 44 45  1  0
 45 46  1  6
M  CHG  1   1   1
M  END
$$$$
