
     RDKit          3D

 47 47  0  0  0  0  0  0  0  0999 V2000
  -15.7170   -9.6945    4.9118 N   0  0  0  0  0  4  0  0  0  0  0  0
  -15.6156   -8.2624    4.7114 C   0  0  2  0  0  0  0  0  0  0  0  0
  -14.5507   -7.7414    5.5960 C   0  0  0  0  0  0  0  0  0  0  0  0
  -14.8476   -6.9559    6.5359 O   0  0  0  0  0  0  0  0  0  0  0  0
  -16.9421   -7.5961    4.9447 C   0  0  0  0  0  0  0  0  0  0  0  0
  -13.1853   -8.0645    5.4678 N   0  0  0  0  0  0  0  0  0  0  0  0
  -12.1898   -7.8970    6.5211 C   0  0  2  0  0  0  0  0  0  0  0  0
  -11.5610   -6.5740    6.5250 C   0  0  0  0  0  0  0  0  0  0  0  0
  -10.6488   -6.3281    7.3837 O   0  0  0  0  0  0  0  0  0  0  0  0
  -11.1143   -8.9742    6.3666 C   0  0  0  0  0  0  0  0  0  0  0  0
  -11.9496   -5.5920    5.6089 N   0  0  0  0  0  0  0  0  0  0  0  0
  -11.2917   -4.2953    5.5969 C   0  0  2  0  0  0  0  0  0  0  0  0
  -10.4054   -4.2840    6.7931 C   0  0  0  0  0  0  0  0  0  0  0  0
  -10.9834   -4.3431    7.9335 O   0  0  0  0  0  0  0  0  0  0  0  0
  -12.3069   -3.1876    5.8723 C   0  0  0  0  0  0  0  0  0  0  0  0
  -11.5544   -1.9133    5.6826 C   0  0  0  0  0  0  0  0  0  0  0  0
  -11.2324   -1.1776    6.6353 O   0  0  0  0  0  0  0  0  0  0  0  0
  -11.1944   -1.5248    4.3953 O   0  0  0  0  0  0  0  0  0  0  0  0
   -8.9896   -4.2134    6.7565 N   0  0  0  0  0  0  0  0  0  0  0  0
   -8.3481   -3.9296    8.0471 C   0  0  2  0  0  0  0  0  0  0  0  0
   -8.0701   -2.5083    8.2566 C   0  0  0  0  0  0  0  0  0  0  0  0
   -8.9416   -1.5956    8.3692 O   0  0  0  0  0  0  0  0  0  0  0  0
   -7.0105   -4.7102    7.9410 C   0  0  2  0  0  0  0  0  0  0  0  0
   -6.9261   -5.2927    6.6786 O   0  0  0  0  0  0  0  0  0  0  0  0
   -6.9087   -5.7518    9.0322 C   0  0  0  0  0  0  0  0  0  0  0  0
   -6.6929   -2.1194    8.3434 N   0  0  0  0  0  0  0  0  0  0  0  0
   -6.3526   -0.7026    8.5536 C   0  0  2  0  0  0  0  0  0  0  0  0
   -4.8924   -0.6015    8.5492 C   0  0  0  0  0  0  0  0  0  0  0  0
   -4.1342   -1.2861    9.2782 O   0  0  0  0  0  0  0  0  0  0  0  0
   -6.9087   -0.3156    9.9464 C   0  0  2  0  0  0  0  0  0  0  0  0
   -6.6001   -1.3141   10.8699 O   0  0  0  0  0  0  0  0  0  0  0  0
   -8.4104   -0.1537    9.9076 C   0  0  0  0  0  0  0  0  0  0  0  0
   -4.2550    0.3423    7.6565 N   0  0  0  0  0  0  0  0  0  0  0  0
   -2.8846    0.1167    7.3253 C   0  0  2  0  0  0  0  0  0  0  0  0
   -2.0008    1.2358    7.5623 C   0  0  0  0  0  0  0  0  0  0  0  0
   -2.5846    2.4147    7.4867 O   0  0  0  0  0  0  0  0  0  0  0  0
   -2.8964   -0.2110    5.8012 C   0  0  2  0  0  0  0  0  0  0  0  0
   -3.2752    0.9732    5.1757 O   0  0  0  0  0  0  0  0  0  0  0  0
   -3.8453   -1.3314    5.5270 C   0  0  0  0  0  0  0  0  0  0  0  0
   -0.6188    1.2063    7.8587 N   0  0  0  0  0  0  0  0  0  0  0  0
    0.0637    2.3940    8.3764 C   0  0  2  0  0  0  0  0  0  0  0  0
    0.3195    3.3533    7.2673 C   0  0  0  0  0  0  0  0  0  0  0  0
    0.4931    4.6842    7.5132 O   0  0  0  0  0  0  0  0  0  0  0  0
    1.3159    1.9261    9.0185 C   0  0  0  0  0  0  0  0  0  0  0  0
    1.2835    0.4405    8.9569 C   0  0  0  0  0  0  0  0  0  0  0  0
    0.3159    0.1307    7.8009 C   0  0  0  0  0  0  0  0  0  0  0  0
    0.3726    2.9159    6.0996 O   0  0  0  0  0  0  0  0  0  0  0  0
  1  2  1  0
  2  3  1  0
  2  5  1  1
  3  4  2  0
  3  6  1  0
  6  7  1  0
  7  8  1  0
  7 10  1  6
  8  9  2  0
  8 11  1  0
 11 12  1  0
 12 13  1  0
 12 15  1  1
 13 14  2  0
 13 19  1  0
 15 16  1  0
 16 17  2  0
 16 18  1  0
 20 19  1  6
 20 21  1  0
 20 23  1  0
 21 22  2  0
 21 26  1  0
 23 24  1  0
 23 25  1  1
 27 26  1  1
 27 28  1  0
 27 30  1  0
 28 29  2  0
 28 33  1  0
 30 31  1  0
 30 32  1  6
 34 33  1  6
 34 35  1  0
 34 37  1  0
 35 36  2  0
 35 40  1  0
 37 38  1  0
 37 39  1  1
 40 41  1  0
 40 46  1  0
 41 42  1  6
 41 44  1  0
 42 43  1  0
 42 47  2  0
 44 45  1  0
 45 46  1  0
M  CHG  1   1   1
M  END
$$$$
