
     RDKit          3D

 47 47  0  0  0  0  0  0  0  0999 V2000
  -14.6968  -11.7453    5.1782 N   0  0  0  0  0  4  0  0  0  0  0  0
  -14.8980  -10.3228    4.7329 C   0  0  2  0  0  0  0  0  0  0  0  0
  -14.7013   -9.4349    5.9093 C   0  0  0  0  0  0  0  0  0  0  0  0
  -14.2539   -9.9294    6.9672 O   0  0  0  0  0  0  0  0  0  0  0  0
  -16.3017  -10.2249    4.1927 C   0  0  0  0  0  0  0  0  0  0  0  0
  -14.9999   -8.0614    5.8794 N   0  0  0  0  0  0  0  0  0  0  0  0
  -14.7305   -7.1009    6.9315 C   0  0  2  0  0  0  0  0  0  0  0  0
  -14.4267   -5.7954    6.2924 C   0  0  0  0  0  0  0  0  0  0  0  0
  -15.3420   -5.2222    5.5913 O   0  0  0  0  0  0  0  0  0  0  0  0
  -13.3893   -7.4950    7.6121 C   0  0  0  0  0  0  0  0  0  0  0  0
  -13.1784   -5.1294    6.3995 N   0  0  0  0  0  0  0  0  0  0  0  0
  -12.1860   -5.3620    5.3641 C   0  0  2  0  0  0  0  0  0  0  0  0
  -10.8071   -5.4532    5.9027 C   0  0  0  0  0  0  0  0  0  0  0  0
  -10.3397   -6.5541    6.3218 O   0  0  0  0  0  0  0  0  0  0  0  0
  -12.2942   -4.1369    4.4331 C   0  0  0  0  0  0  0  0  0  0  0  0
  -13.5532   -4.2558    3.6591 C   0  0  0  0  0  0  0  0  0  0  0  0
  -13.6873   -4.9972    2.6598 O   0  0  0  0  0  0  0  0  0  0  0  0
  -14.6728   -3.5018    4.0490 O   0  0  0  0  0  0  0  0  0  0  0  0
  -10.0444   -4.2592    5.9197 N   0  0  0  0  0  0  0  0  0  0  0  0
   -8.5733   -4.2596    6.0029 C   0  0  2  0  0  0  0  0  0  0  0  0
   -8.2266   -3.6766    7.2829 C   0  0  0  0  0  0  0  0  0  0  0  0
   -9.1321   -2.9704    7.8732 O   0  0  0  0  0  0  0  0  0  0  0  0
   -8.0479   -3.3968    4.8279 C   0  0  2  0  0  0  0  0  0  0  0  0
   -8.8868   -2.2749    4.7176 O   0  0  0  0  0  0  0  0  0  0  0  0
   -8.3232   -4.2022    3.5706 C   0  0  0  0  0  0  0  0  0  0  0  0
   -6.9956   -3.7775    7.9935 N   0  0  0  0  0  0  0  0  0  0  0  0
   -6.7325   -2.8886    9.0869 C   0  0  2  0  0  0  0  0  0  0  0  0
   -6.2928   -1.5418    8.6857 C   0  0  0  0  0  0  0  0  0  0  0  0
   -5.8094   -1.3486    7.5451 O   0  0  0  0  0  0  0  0  0  0  0  0
   -5.7513   -3.4685   10.0823 C   0  0  2  0  0  0  0  0  0  0  0  0
   -6.0429   -4.8135   10.2896 O   0  0  0  0  0  0  0  0  0  0  0  0
   -5.8133   -2.7040   11.3584 C   0  0  0  0  0  0  0  0  0  0  0  0
   -6.3997   -0.4145    9.5802 N   0  0  0  0  0  0  0  0  0  0  0  0
   -5.9384    0.9176    9.2364 C   0  0  2  0  0  0  0  0  0  0  0  0
   -5.0872    1.4466   10.3281 C   0  0  0  0  0  0  0  0  0  0  0  0
   -5.4141    1.1383   11.5320 O   0  0  0  0  0  0  0  0  0  0  0  0
   -7.2048    1.7998    9.1163 C   0  0  2  0  0  0  0  0  0  0  0  0
   -8.0846    1.4884   10.1712 O   0  0  0  0  0  0  0  0  0  0  0  0
   -7.8554    1.6334    7.7739 C   0  0  0  0  0  0  0  0  0  0  0  0
   -3.9585    2.2595   10.1093 N   0  0  0  0  0  0  0  0  0  0  0  0
   -2.8729    2.6943   10.9559 C   0  0  2  0  0  0  0  0  0  0  0  0
   -2.8849    4.1560   11.1842 C   0  0  0  0  0  0  0  0  0  0  0  0
   -3.9935    4.8252   11.6338 O   0  0  0  0  0  0  0  0  0  0  0  0
   -1.6782    2.2395   10.1527 C   0  0  0  0  0  0  0  0  0  0  0  0
   -2.1256    2.5835    8.7396 C   0  0  0  0  0  0  0  0  0  0  0  0
   -3.6144    2.8498    8.8045 C   0  0  0  0  0  0  0  0  0  0  0  0
   -1.8329    4.8020   10.9556 O   0  0  0  0  0  0  0  0  0  0  0  0
  1  2  1  6
  2  3  1  1
  5  2  1  6
  3  4  2  0
  3  6  1  0
  7  6  1  6
  7  8  1  0
 10  7  1  6
  8  9  2  0
  8 11  1  0
 12 11  1  1
 12 13  1  0
 12 15  1  0
 13 14  2  0
 13 19  1  0
 15 16  1  6
 16 17  2  0
 16 18  1  0
 20 19  1  6
 20 21  1  0
 20 23  1  0
 21 22  2  0
 21 26  1  0
 23 24  1  6
 25 23  1  6
 27 26  1  6
 27 28  1  0
 27 30  1  0
 28 29  2  0
 28 33  1  0
 30 31  1  1
 32 30  1  6
 34 33  1  1
 34 35  1  0
 34 37  1  0
 35 36  2  0
 35 40  1  0
 37 38  1  1
 39 37  1  6
 40 41  1  0
 46 40  1  1
 41 42  1  6
 44 41  1  1
 42 43  1  0
 42 47  2  0
 44 45  1  0
 45 46  1  6
M  CHG  1   1   1
M  END
$$$$
