
     RDKit          3D

 47 47  0  0  0  0  0  0  0  0999 V2000
  -15.7212  -10.2210    3.0774 N   0  0  0  0  0  4  0  0  0  0  0  0
  -15.8965   -9.0306    3.9800 C   0  0  2  0  0  0  0  0  0  0  0  0
  -14.9110   -7.9924    3.5773 C   0  0  0  0  0  0  0  0  0  0  0  0
  -15.1119   -7.3498    2.5235 O   0  0  0  0  0  0  0  0  0  0  0  0
  -15.6552   -9.5073    5.3894 C   0  0  0  0  0  0  0  0  0  0  0  0
  -13.7613   -7.7060    4.3341 N   0  0  0  0  0  0  0  0  0  0  0  0
  -13.0090   -6.4667    4.3174 C   0  0  2  0  0  0  0  0  0  0  0  0
  -12.2189   -6.3940    5.5726 C   0  0  0  0  0  0  0  0  0  0  0  0
  -11.1699   -7.1319    5.6866 O   0  0  0  0  0  0  0  0  0  0  0  0
  -14.0159   -5.2896    4.4512 C   0  0  0  0  0  0  0  0  0  0  0  0
  -12.5478   -5.5589    6.6715 N   0  0  0  0  0  0  0  0  0  0  0  0
  -11.8304   -4.3040    6.8180 C   0  0  2  0  0  0  0  0  0  0  0  0
  -10.3747   -4.4444    6.5711 C   0  0  0  0  0  0  0  0  0  0  0  0
   -9.7847   -5.5519    6.7479 O   0  0  0  0  0  0  0  0  0  0  0  0
  -12.0651   -3.8854    8.2839 C   0  0  0  0  0  0  0  0  0  0  0  0
  -11.3589   -2.6025    8.5158 C   0  0  0  0  0  0  0  0  0  0  0  0
  -11.9173   -1.4834    8.4698 O   0  0  0  0  0  0  0  0  0  0  0  0
   -9.9837   -2.6179    8.8034 O   0  0  0  0  0  0  0  0  0  0  0  0
   -9.6848   -3.2893    6.1266 N   0  0  0  0  0  0  0  0  0  0  0  0
   -8.2423   -3.2943    5.8262 C   0  0  2  0  0  0  0  0  0  0  0  0
   -7.6182   -2.3751    6.7558 C   0  0  0  0  0  0  0  0  0  0  0  0
   -6.7941   -1.5106    6.2656 O   0  0  0  0  0  0  0  0  0  0  0  0
   -8.0779   -2.8156    4.3616 C   0  0  2  0  0  0  0  0  0  0  0  0
   -7.3912   -1.5900    4.3907 O   0  0  0  0  0  0  0  0  0  0  0  0
   -9.4748   -2.4575    3.8865 C   0  0  0  0  0  0  0  0  0  0  0  0
   -7.7931   -2.2944    8.1677 N   0  0  0  0  0  0  0  0  0  0  0  0
   -6.8594   -1.5458    8.9566 C   0  0  2  0  0  0  0  0  0  0  0  0
   -5.5186   -1.4224    8.3608 C   0  0  0  0  0  0  0  0  0  0  0  0
   -5.1606   -2.1992    7.4441 O   0  0  0  0  0  0  0  0  0  0  0  0
   -6.7412   -2.0729   10.3702 C   0  0  2  0  0  0  0  0  0  0  0  0
   -8.0100   -2.3618   10.8639 O   0  0  0  0  0  0  0  0  0  0  0  0
   -6.0479   -1.0722   11.2274 C   0  0  0  0  0  0  0  0  0  0  0  0
   -4.5830   -0.4184    8.8071 N   0  0  0  0  0  0  0  0  0  0  0  0
   -3.2643   -0.2485    8.2258 C   0  0  2  0  0  0  0  0  0  0  0  0
   -2.3873    0.4666    9.1826 C   0  0  0  0  0  0  0  0  0  0  0  0
   -2.8754    1.4995    9.7706 O   0  0  0  0  0  0  0  0  0  0  0  0
   -3.4536    0.6310    6.9660 C   0  0  2  0  0  0  0  0  0  0  0  0
   -4.1990    1.7752    7.3110 O   0  0  0  0  0  0  0  0  0  0  0  0
   -4.0977   -0.1458    5.8549 C   0  0  0  0  0  0  0  0  0  0  0  0
   -1.0658    0.0734    9.4689 N   0  0  0  0  0  0  0  0  0  0  0  0
   -0.0757   -0.6780    8.7342 C   0  0  2  0  0  0  0  0  0  0  0  0
    0.2515   -1.9668    9.3830 C   0  0  0  0  0  0  0  0  0  0  0  0
   -0.0679   -3.1776    8.8252 O   0  0  0  0  0  0  0  0  0  0  0  0
    1.0844    0.2882    8.7390 C   0  0  0  0  0  0  0  0  0  0  0  0
    1.0044    0.8370   10.1560 C   0  0  0  0  0  0  0  0  0  0  0  0
   -0.3505    0.4409   10.7028 C   0  0  0  0  0  0  0  0  0  0  0  0
    0.8469   -1.9417   10.4880 O   0  0  0  0  0  0  0  0  0  0  0  0
  1  2  1  6
  2  3  1  6
  5  2  1  6
  3  4  2  0
  3  6  1  0
  7  6  1  1
  7  8  1  0
 10  7  1  6
  8  9  2  0
  8 11  1  0
 12 11  1  1
 12 13  1  0
 12 15  1  0
 13 14  2  0
 13 19  1  0
 15 16  1  6
 16 17  2  0
 16 18  1  0
 20 19  1  1
 20 21  1  0
 20 23  1  0
 21 22  2  0
 21 26  1  0
 23 24  1  1
 25 23  1  6
 27 26  1  6
 27 28  1  0
 27 30  1  0
 28 29  2  0
 28 33  1  0
 30 31  1  1
 32 30  1  6
 34 33  1  1
 34 35  1  0
 34 37  1  0
 35 36  2  0
 35 40  1  0
 37 38  1  1
 39 37  1  6
 40 41  1  0
 46 40  1  1
 41 42  1  1
 44 41  1  1
 42 43  1  0
 42 47  2  0
 44 45  1  0
 45 46  1  6
M  CHG  1   1   1
M  END
$$$$
