
     RDKit          3D

 47 47  0  0  0  0  0  0  0  0999 V2000
   -9.4781   -9.2555    1.8128 N   0  0  0  0  0  4  0  0  0  0  0  0
   -9.1530   -7.9671    1.2336 C   0  0  2  0  0  0  0  0  0  0  0  0
  -10.3565   -7.1094    1.2975 C   0  0  0  0  0  0  0  0  0  0  0  0
  -10.4033   -6.0469    0.6212 O   0  0  0  0  0  0  0  0  0  0  0  0
   -8.6284   -8.1283   -0.1653 C   0  0  0  0  0  0  0  0  0  0  0  0
  -11.4929   -7.3955    2.0797 N   0  0  0  0  0  0  0  0  0  0  0  0
  -12.8610   -7.0411    1.7176 C   0  0  2  0  0  0  0  0  0  0  0  0
  -13.6946   -6.6809    2.8670 C   0  0  0  0  0  0  0  0  0  0  0  0
  -14.8726   -6.2355    2.6581 O   0  0  0  0  0  0  0  0  0  0  0  0
  -13.4989   -8.2142    0.9706 C   0  0  0  0  0  0  0  0  0  0  0  0
  -13.2141   -6.8177    4.1728 N   0  0  0  0  0  0  0  0  0  0  0  0
  -14.0493   -6.4535    5.3060 C   0  0  2  0  0  0  0  0  0  0  0  0
  -13.1675   -5.6787    6.2218 C   0  0  0  0  0  0  0  0  0  0  0  0
  -13.5622   -5.5638    7.4339 O   0  0  0  0  0  0  0  0  0  0  0  0
  -14.4203   -7.6994    6.1082 C   0  0  0  0  0  0  0  0  0  0  0  0
  -15.4506   -7.2413    7.0854 C   0  0  0  0  0  0  0  0  0  0  0  0
  -16.6447   -7.0750    6.7708 O   0  0  0  0  0  0  0  0  0  0  0  0
  -15.0712   -6.9881    8.4005 O   0  0  0  0  0  0  0  0  0  0  0  0
  -11.9420   -5.0701    5.8500 N   0  0  0  0  0  0  0  0  0  0  0  0
  -11.1474   -4.5407    6.9663 C   0  0  2  0  0  0  0  0  0  0  0  0
  -10.2240   -3.4776    6.5683 C   0  0  0  0  0  0  0  0  0  0  0  0
  -10.2338   -2.8710    5.4560 O   0  0  0  0  0  0  0  0  0  0  0  0
  -10.3402   -5.7834    7.4287 C   0  0  2  0  0  0  0  0  0  0  0  0
   -9.6301   -5.4576    8.5818 O   0  0  0  0  0  0  0  0  0  0  0  0
   -9.4146   -6.2607    6.3326 C   0  0  0  0  0  0  0  0  0  0  0  0
   -9.2255   -3.0908    7.5216 N   0  0  0  0  0  0  0  0  0  0  0  0
   -8.5119   -1.8153    7.3454 C   0  0  2  0  0  0  0  0  0  0  0  0
   -7.5369   -1.7094    8.4319 C   0  0  0  0  0  0  0  0  0  0  0  0
   -7.8385   -1.5388    9.6381 O   0  0  0  0  0  0  0  0  0  0  0  0
   -9.5725   -0.6935    7.4709 C   0  0  2  0  0  0  0  0  0  0  0  0
  -10.2023   -0.7788    8.7123 O   0  0  0  0  0  0  0  0  0  0  0  0
  -10.6264   -0.8176    6.3954 C   0  0  0  0  0  0  0  0  0  0  0  0
   -6.1263   -1.8031    8.1233 N   0  0  0  0  0  0  0  0  0  0  0  0
   -5.2015   -1.6167    9.1951 C   0  0  2  0  0  0  0  0  0  0  0  0
   -4.7600   -0.2554    9.3988 C   0  0  0  0  0  0  0  0  0  0  0  0
   -4.8605    0.5134    8.3334 O   0  0  0  0  0  0  0  0  0  0  0  0
   -3.9745   -2.5002    8.8149 C   0  0  2  0  0  0  0  0  0  0  0  0
   -3.4118   -1.8841    7.7009 O   0  0  0  0  0  0  0  0  0  0  0  0
   -4.4194   -3.8975    8.5318 C   0  0  0  0  0  0  0  0  0  0  0  0
   -4.2478    0.3262   10.5811 N   0  0  0  0  0  0  0  0  0  0  0  0
   -3.9464    1.7578   10.6442 C   0  0  2  0  0  0  0  0  0  0  0  0
   -2.6601    2.0345    9.9479 C   0  0  0  0  0  0  0  0  0  0  0  0
   -2.5481    3.0621    9.0572 O   0  0  0  0  0  0  0  0  0  0  0  0
   -3.9019    2.1261   12.0801 C   0  0  0  0  0  0  0  0  0  0  0  0
   -4.2926    0.9050   12.8337 C   0  0  0  0  0  0  0  0  0  0  0  0
   -3.9972   -0.2506   11.8612 C   0  0  0  0  0  0  0  0  0  0  0  0
   -1.6783    1.3044   10.1945 O   0  0  0  0  0  0  0  0  0  0  0  0
  1  2  1  0
  2  3  1  0
  2  5  1  6
  3  4  2  0
  3  6  1  0
  6  7  1  0
  7  8  1  0
  7 10  1  1
  8  9  2  0
  8 11  1  0
 11 12  1  0
 12 13  1  0
 12 15  1  1
 13 14  2  0
 13 19  1  0
 15 16  1  0
 16 17  2  0
 16 18  1  0
 20 19  1  6
 20 21  1  0
 20 23  1  0
 21 22  2  0
 21 26  1  0
 23 24  1  0
 23 25  1  6
 27 26  1  1
 27 28  1  0
 27 30  1  0
 28 29  2  0
 28 33  1  0
 30 31  1  0
 30 32  1  6
 34 33  1  6
 34 35  1  0
 34 37  1  0
 35 36  2  0
 35 40  1  0
 37 38  1  0
 37 39  1  6
 40 41  1  0
 40 46  1  0
 41 42  1  1
 41 44  1  0
 42 43  1  0
 42 47  2  0
 44 45  1  0
 45 46  1  0
M  CHG  1   1   1
M  END
$$$$
