
     RDKit          3D

 47 47  0  0  0  0  0  0  0  0999 V2000
  -18.3559  -10.0960    5.5903 N   0  0  0  0  0  4  0  0  0  0  0  0
  -17.4476   -9.1664    6.3474 C   0  0  2  0  0  0  0  0  0  0  0  0
  -16.4266   -8.6416    5.4024 C   0  0  0  0  0  0  0  0  0  0  0  0
  -16.5435   -8.9034    4.1852 O   0  0  0  0  0  0  0  0  0  0  0  0
  -16.8168   -9.9719    7.4543 C   0  0  0  0  0  0  0  0  0  0  0  0
  -15.3340   -7.8636    5.8238 N   0  0  0  0  0  0  0  0  0  0  0  0
  -14.3566   -7.2206    4.9675 C   0  0  2  0  0  0  0  0  0  0  0  0
  -13.5677   -6.2781    5.8009 C   0  0  0  0  0  0  0  0  0  0  0  0
  -14.1757   -5.5989    6.7103 O   0  0  0  0  0  0  0  0  0  0  0  0
  -15.1174   -6.2882    3.9830 C   0  0  0  0  0  0  0  0  0  0  0  0
  -12.1715   -6.0688    5.6588 N   0  0  0  0  0  0  0  0  0  0  0  0
  -11.4677   -5.3864    6.7312 C   0  0  2  0  0  0  0  0  0  0  0  0
  -10.7019   -4.2088    6.2550 C   0  0  0  0  0  0  0  0  0  0  0  0
  -10.4714   -4.0333    5.0213 O   0  0  0  0  0  0  0  0  0  0  0  0
  -10.4925   -6.4401    7.2948 C   0  0  0  0  0  0  0  0  0  0  0  0
   -9.6770   -6.9611    6.1716 C   0  0  0  0  0  0  0  0  0  0  0  0
   -9.8132   -6.5913    4.9837 O   0  0  0  0  0  0  0  0  0  0  0  0
   -8.6899   -7.9271    6.4298 O   0  0  0  0  0  0  0  0  0  0  0  0
  -10.2502   -3.2959    7.2401 N   0  0  0  0  0  0  0  0  0  0  0  0
   -9.5153   -2.0645    6.9018 C   0  0  2  0  0  0  0  0  0  0  0  0
   -8.4362   -1.9445    7.8608 C   0  0  0  0  0  0  0  0  0  0  0  0
   -8.7637   -1.8138    9.1028 O   0  0  0  0  0  0  0  0  0  0  0  0
  -10.5144   -0.8865    7.0249 C   0  0  2  0  0  0  0  0  0  0  0  0
  -11.0671   -0.9326    8.3159 O   0  0  0  0  0  0  0  0  0  0  0  0
  -11.6714   -1.2302    6.1037 C   0  0  0  0  0  0  0  0  0  0  0  0
   -7.0327   -1.9500    7.6144 N   0  0  0  0  0  0  0  0  0  0  0  0
   -6.1213   -1.7223    8.6972 C   0  0  2  0  0  0  0  0  0  0  0  0
   -5.3160   -0.4964    8.5689 C   0  0  0  0  0  0  0  0  0  0  0  0
   -4.5039   -0.3701    7.6221 O   0  0  0  0  0  0  0  0  0  0  0  0
   -5.2110   -2.9050    8.9472 C   0  0  2  0  0  0  0  0  0  0  0  0
   -4.4210   -3.1267    7.8230 O   0  0  0  0  0  0  0  0  0  0  0  0
   -6.0234   -4.1085    9.2767 C   0  0  0  0  0  0  0  0  0  0  0  0
   -5.4306    0.5856    9.5170 N   0  0  0  0  0  0  0  0  0  0  0  0
   -4.6293    1.7930    9.4436 C   0  0  2  0  0  0  0  0  0  0  0  0
   -3.2543    1.5071    9.9166 C   0  0  0  0  0  0  0  0  0  0  0  0
   -3.1130    0.5718   10.7862 O   0  0  0  0  0  0  0  0  0  0  0  0
   -5.2880    2.8121   10.4048 C   0  0  2  0  0  0  0  0  0  0  0  0
   -5.2658    4.0881    9.8088 O   0  0  0  0  0  0  0  0  0  0  0  0
   -4.6135    2.8060   11.7457 C   0  0  0  0  0  0  0  0  0  0  0  0
   -2.1167    2.2039    9.4658 N   0  0  0  0  0  0  0  0  0  0  0  0
   -0.7007    1.9276    9.5208 C   0  0  2  0  0  0  0  0  0  0  0  0
    0.0313    2.8948   10.3679 C   0  0  0  0  0  0  0  0  0  0  0  0
    0.9704    2.5087   11.2888 O   0  0  0  0  0  0  0  0  0  0  0  0
   -0.3278    2.0318    8.0615 C   0  0  0  0  0  0  0  0  0  0  0  0
   -1.1593    3.2309    7.6302 C   0  0  0  0  0  0  0  0  0  0  0  0
   -2.1749    3.4760    8.7258 C   0  0  0  0  0  0  0  0  0  0  0  0
   -0.2229    4.1166   10.2307 O   0  0  0  0  0  0  0  0  0  0  0  0
  1  2  1  6
  2  3  1  6
  5  2  1  6
  3  4  2  0
  3  6  1  0
  7  6  1  1
  7  8  1  0
 10  7  1  6
  8  9  2  0
  8 11  1  0
 12 11  1  6
 12 13  1  0
 12 15  1  0
 13 14  2  0
 13 19  1  0
 15 16  1  6
 16 17  2  0
 16 18  1  0
 20 19  1  1
 20 21  1  0
 20 23  1  0
 21 22  2  0
 21 26  1  0
 23 24  1  1
 25 23  1  6
 27 26  1  6
 27 28  1  0
 27 30  1  0
 28 29  2  0
 28 33  1  0
 30 31  1  6
 32 30  1  6
 34 33  1  1
 34 35  1  0
 34 37  1  0
 35 36  2  0
 35 40  1  0
 37 38  1  6
 39 37  1  6
 40 41  1  0
 46 40  1  1
 41 42  1  1
 44 41  1  1
 42 43  1  0
 42 47  2  0
 44 45  1  0
 45 46  1  6
M  CHG  1   1   1
M  END
$$$$
