
     RDKit          3D

 47 47  0  0  0  0  0  0  0  0999 V2000
  -16.0819  -11.8876    4.0271 N   0  0  0  0  0  4  0  0  0  0  0  0
  -15.8304  -10.7043    4.9210 C   0  0  2  0  0  0  0  0  0  0  0  0
  -15.8853   -9.4730    4.0891 C   0  0  0  0  0  0  0  0  0  0  0  0
  -16.7021   -9.4226    3.1435 O   0  0  0  0  0  0  0  0  0  0  0  0
  -14.4678  -10.8983    5.5353 C   0  0  0  0  0  0  0  0  0  0  0  0
  -15.0538   -8.3637    4.3231 N   0  0  0  0  0  0  0  0  0  0  0  0
  -15.0586   -7.1161    3.5846 C   0  0  2  0  0  0  0  0  0  0  0  0
  -14.1333   -6.1766    4.2675 C   0  0  0  0  0  0  0  0  0  0  0  0
  -13.9463   -5.0105    3.7546 O   0  0  0  0  0  0  0  0  0  0  0  0
  -16.4528   -6.4529    3.7677 C   0  0  0  0  0  0  0  0  0  0  0  0
  -13.4282   -6.4818    5.4604 N   0  0  0  0  0  0  0  0  0  0  0  0
  -12.9094   -5.3790    6.2515 C   0  0  2  0  0  0  0  0  0  0  0  0
  -11.5540   -4.9552    5.8234 C   0  0  0  0  0  0  0  0  0  0  0  0
  -10.8496   -5.6849    5.0636 O   0  0  0  0  0  0  0  0  0  0  0  0
  -12.8460   -5.9244    7.6929 C   0  0  0  0  0  0  0  0  0  0  0  0
  -11.9288   -7.0893    7.7052 C   0  0  0  0  0  0  0  0  0  0  0  0
  -10.8901   -7.1487    8.4007 O   0  0  0  0  0  0  0  0  0  0  0  0
  -12.2200   -8.2012    6.8971 O   0  0  0  0  0  0  0  0  0  0  0  0
  -11.0934   -3.7022    6.2986 N   0  0  0  0  0  0  0  0  0  0  0  0
   -9.7916   -3.1353    5.9050 C   0  0  2  0  0  0  0  0  0  0  0  0
   -8.9662   -3.1171    7.0954 C   0  0  0  0  0  0  0  0  0  0  0  0
   -9.5299   -2.7501    8.1974 O   0  0  0  0  0  0  0  0  0  0  0  0
  -10.0566   -1.7020    5.3789 C   0  0  2  0  0  0  0  0  0  0  0  0
   -8.8094   -1.0861    5.1802 O   0  0  0  0  0  0  0  0  0  0  0  0
  -10.6737   -0.9446    6.5411 C   0  0  0  0  0  0  0  0  0  0  0  0
   -7.5873   -3.4551    7.2176 N   0  0  0  0  0  0  0  0  0  0  0  0
   -6.8652   -3.0740    8.3958 C   0  0  2  0  0  0  0  0  0  0  0  0
   -6.1459   -1.7942    8.2831 C   0  0  0  0  0  0  0  0  0  0  0  0
   -5.3560   -1.5952    7.3300 O   0  0  0  0  0  0  0  0  0  0  0  0
   -5.9138   -4.1525    8.8667 C   0  0  2  0  0  0  0  0  0  0  0  0
   -4.7826   -4.1578    8.0559 O   0  0  0  0  0  0  0  0  0  0  0  0
   -6.5962   -5.4755    8.8428 C   0  0  0  0  0  0  0  0  0  0  0  0
   -6.3214   -0.7409    9.2537 N   0  0  0  0  0  0  0  0  0  0  0  0
   -5.6036    0.5188    9.1960 C   0  0  2  0  0  0  0  0  0  0  0  0
   -5.4755    1.0815   10.5609 C   0  0  0  0  0  0  0  0  0  0  0  0
   -6.3275    0.6928   11.4408 O   0  0  0  0  0  0  0  0  0  0  0  0
   -6.4690    1.4746    8.3393 C   0  0  2  0  0  0  0  0  0  0  0  0
   -7.7424    1.5958    8.9290 O   0  0  0  0  0  0  0  0  0  0  0  0
   -6.5507    1.0027    6.9167 C   0  0  0  0  0  0  0  0  0  0  0  0
   -4.4816    2.0084   10.9294 N   0  0  0  0  0  0  0  0  0  0  0  0
   -4.0295    2.5217   12.2009 C   0  0  2  0  0  0  0  0  0  0  0  0
   -4.3036    3.9672   12.3564 C   0  0  0  0  0  0  0  0  0  0  0  0
   -3.8043    4.7068   13.3970 O   0  0  0  0  0  0  0  0  0  0  0  0
   -2.5534    2.2125   12.1305 C   0  0  0  0  0  0  0  0  0  0  0  0
   -2.2500    2.5547   10.6792 C   0  0  0  0  0  0  0  0  0  0  0  0
   -3.5820    2.6704    9.9692 C   0  0  0  0  0  0  0  0  0  0  0  0
   -5.0222    4.5319   11.4957 O   0  0  0  0  0  0  0  0  0  0  0  0
  1  2  1  6
  2  3  1  6
  5  2  1  6
  3  4  2  0
  3  6  1  0
  7  6  1  1
  7  8  1  0
 10  7  1  6
  8  9  2  0
  8 11  1  0
 12 11  1  6
 12 13  1  0
 12 15  1  0
 13 14  2  0
 13 19  1  0
 15 16  1  6
 16 17  2  0
 16 18  1  0
 20 19  1  1
 20 21  1  0
 20 23  1  0
 21 22  2  0
 21 26  1  0
 23 24  1  1
 25 23  1  6
 27 26  1  6
 27 28  1  0
 27 30  1  0
 28 29  2  0
 28 33  1  0
 30 31  1  6
 32 30  1  6
 34 33  1  1
 34 35  1  0
 34 37  1  0
 35 36  2  0
 35 40  1  0
 37 38  1  1
 39 37  1  6
 40 41  1  0
 46 40  1  1
 41 42  1  6
 44 41  1  1
 42 43  1  0
 42 47  2  0
 44 45  1  0
 45 46  1  6
M  CHG  1   1   1
M  END
$$$$
