
     RDKit          3D

 47 47  0  0  0  0  0  0  0  0999 V2000
  -14.9401  -10.3372    4.5978 N   0  0  0  0  0  4  0  0  0  0  0  0
  -15.1377   -9.3178    3.5096 C   0  0  2  0  0  0  0  0  0  0  0  0
  -15.0423   -7.9641    4.1175 C   0  0  0  0  0  0  0  0  0  0  0  0
  -15.2958   -6.9669    3.4067 O   0  0  0  0  0  0  0  0  0  0  0  0
  -16.5014   -9.5648    2.9171 C   0  0  0  0  0  0  0  0  0  0  0  0
  -14.6770   -7.7611    5.4599 N   0  0  0  0  0  0  0  0  0  0  0  0
  -14.6356   -6.4899    6.1558 C   0  0  2  0  0  0  0  0  0  0  0  0
  -13.2109   -6.1077    6.3265 C   0  0  0  0  0  0  0  0  0  0  0  0
  -12.3474   -7.0318    6.5681 O   0  0  0  0  0  0  0  0  0  0  0  0
  -15.1284   -6.7214    7.6122 C   0  0  0  0  0  0  0  0  0  0  0  0
  -12.7302   -4.7753    6.2447 N   0  0  0  0  0  0  0  0  0  0  0  0
  -11.3059   -4.5481    6.4203 C   0  0  2  0  0  0  0  0  0  0  0  0
  -10.9909   -3.8369    7.6832 C   0  0  0  0  0  0  0  0  0  0  0  0
  -11.8718   -3.1551    8.2876 O   0  0  0  0  0  0  0  0  0  0  0  0
  -10.8965   -3.6701    5.2201 C   0  0  0  0  0  0  0  0  0  0  0  0
  -10.7616   -4.5470    4.0322 C   0  0  0  0  0  0  0  0  0  0  0  0
   -9.7632   -4.5463    3.2775 O   0  0  0  0  0  0  0  0  0  0  0  0
  -11.8014   -5.4368    3.7137 O   0  0  0  0  0  0  0  0  0  0  0  0
   -9.6689   -3.9617    8.1776 N   0  0  0  0  0  0  0  0  0  0  0  0
   -9.1843   -3.2040    9.3447 C   0  0  2  0  0  0  0  0  0  0  0  0
   -8.6055   -1.9773    8.8361 C   0  0  0  0  0  0  0  0  0  0  0  0
   -8.9754   -1.5949    7.6597 O   0  0  0  0  0  0  0  0  0  0  0  0
   -8.1197   -4.0813   10.0503 C   0  0  2  0  0  0  0  0  0  0  0  0
   -7.1087   -4.3563    9.1139 O   0  0  0  0  0  0  0  0  0  0  0  0
   -8.7875   -5.4230   10.2935 C   0  0  0  0  0  0  0  0  0  0  0  0
   -7.6625   -1.1178    9.4705 N   0  0  0  0  0  0  0  0  0  0  0  0
   -7.2886    0.1139    8.8397 C   0  0  2  0  0  0  0  0  0  0  0  0
   -6.2535    0.8769    9.5570 C   0  0  0  0  0  0  0  0  0  0  0  0
   -6.5742    1.8425   10.2895 O   0  0  0  0  0  0  0  0  0  0  0  0
   -8.4780    1.0072    8.5617 C   0  0  2  0  0  0  0  0  0  0  0  0
   -8.9761    1.5017    9.7635 O   0  0  0  0  0  0  0  0  0  0  0  0
   -9.5217    0.2452    7.8223 C   0  0  0  0  0  0  0  0  0  0  0  0
   -4.8539    0.5452    9.4409 N   0  0  0  0  0  0  0  0  0  0  0  0
   -3.8089    1.2524   10.1575 C   0  0  2  0  0  0  0  0  0  0  0  0
   -2.9489    1.9788    9.1937 C   0  0  0  0  0  0  0  0  0  0  0  0
   -2.9837    1.5956    7.9678 O   0  0  0  0  0  0  0  0  0  0  0  0
   -2.9605    0.1710   10.8698 C   0  0  2  0  0  0  0  0  0  0  0  0
   -2.4818   -0.7436    9.9116 O   0  0  0  0  0  0  0  0  0  0  0  0
   -3.7475   -0.5088   11.9521 C   0  0  0  0  0  0  0  0  0  0  0  0
   -2.1083    3.0491    9.5555 N   0  0  0  0  0  0  0  0  0  0  0  0
   -1.5022    4.1271    8.8104 C   0  0  2  0  0  0  0  0  0  0  0  0
   -0.0263    4.0304    8.7762 C   0  0  0  0  0  0  0  0  0  0  0  0
    0.7900    5.1207    8.9311 O   0  0  0  0  0  0  0  0  0  0  0  0
   -1.9901    5.3266    9.5865 C   0  0  0  0  0  0  0  0  0  0  0  0
   -1.8641    4.8227   11.0168 C   0  0  0  0  0  0  0  0  0  0  0  0
   -1.6783    3.3224   10.9374 C   0  0  0  0  0  0  0  0  0  0  0  0
    0.4914    2.9005    8.5990 O   0  0  0  0  0  0  0  0  0  0  0  0
  1  2  1  6
  2  3  1  1
  5  2  1  6
  3  4  2  0
  3  6  1  0
  7  6  1  6
  7  8  1  0
 10  7  1  6
  8  9  2  0
  8 11  1  0
 12 11  1  6
 12 13  1  0
 12 15  1  0
 13 14  2  0
 13 19  1  0
 15 16  1  6
 16 17  2  0
 16 18  1  0
 20 19  1  6
 20 21  1  0
 20 23  1  0
 21 22  2  0
 21 26  1  0
 23 24  1  6
 25 23  1  6
 27 26  1  1
 27 28  1  0
 27 30  1  0
 28 29  2  0
 28 33  1  0
 30 31  1  1
 32 30  1  6
 34 33  1  6
 34 35  1  0
 34 37  1  0
 35 36  2  0
 35 40  1  0
 37 38  1  6
 39 37  1  6
 40 41  1  0
 46 40  1  1
 41 42  1  1
 44 41  1  1
 42 43  1  0
 42 47  2  0
 44 45  1  0
 45 46  1  6
M  CHG  1   1   1
M  END
$$$$
