
     RDKit          3D

 47 47  0  0  0  0  0  0  0  0999 V2000
  -16.0648   -9.9172    0.4055 N   0  0  0  0  0  4  0  0  0  0  0  0
  -15.8720   -9.9945    1.8401 C   0  0  2  0  0  0  0  0  0  0  0  0
  -16.0884   -8.6482    2.4135 C   0  0  0  0  0  0  0  0  0  0  0  0
  -16.2981   -7.6692    1.6479 O   0  0  0  0  0  0  0  0  0  0  0  0
  -14.5160  -10.5537    2.1665 C   0  0  0  0  0  0  0  0  0  0  0  0
  -16.0790   -8.3636    3.7933 N   0  0  0  0  0  0  0  0  0  0  0  0
  -16.1935   -7.0268    4.3663 C   0  0  2  0  0  0  0  0  0  0  0  0
  -15.0090   -6.1937    4.1458 C   0  0  0  0  0  0  0  0  0  0  0  0
  -15.0441   -4.9672    4.4986 O   0  0  0  0  0  0  0  0  0  0  0  0
  -16.4606   -7.1490    5.8679 C   0  0  0  0  0  0  0  0  0  0  0  0
  -13.8574   -6.7251    3.5575 N   0  0  0  0  0  0  0  0  0  0  0  0
  -12.6274   -5.9505    3.5172 C   0  0  2  0  0  0  0  0  0  0  0  0
  -12.5716   -5.2183    4.8123 C   0  0  0  0  0  0  0  0  0  0  0  0
  -12.8933   -3.9798    4.7832 O   0  0  0  0  0  0  0  0  0  0  0  0
  -12.7351   -4.8464    2.4669 C   0  0  0  0  0  0  0  0  0  0  0  0
  -11.3906   -4.7887    1.8228 C   0  0  0  0  0  0  0  0  0  0  0  0
  -10.5263   -5.6692    1.9972 O   0  0  0  0  0  0  0  0  0  0  0  0
  -11.0825   -3.7139    0.9937 O   0  0  0  0  0  0  0  0  0  0  0  0
  -12.1933   -5.7887    6.0541 N   0  0  0  0  0  0  0  0  0  0  0  0
  -11.7376   -4.8270    7.0665 C   0  0  2  0  0  0  0  0  0  0  0  0
  -10.7293   -3.8920    6.5661 C   0  0  0  0  0  0  0  0  0  0  0  0
  -10.5931   -3.5312    5.3592 O   0  0  0  0  0  0  0  0  0  0  0  0
  -11.1042   -5.7445    8.1466 C   0  0  2  0  0  0  0  0  0  0  0  0
   -9.9008   -6.2504    7.6608 O   0  0  0  0  0  0  0  0  0  0  0  0
  -12.0523   -6.8591    8.5274 C   0  0  0  0  0  0  0  0  0  0  0  0
   -9.8208   -3.3376    7.5266 N   0  0  0  0  0  0  0  0  0  0  0  0
   -8.8880   -2.2765    7.1126 C   0  0  2  0  0  0  0  0  0  0  0  0
   -8.0363   -1.9734    8.2637 C   0  0  0  0  0  0  0  0  0  0  0  0
   -8.4567   -1.8411    9.4387 O   0  0  0  0  0  0  0  0  0  0  0  0
   -9.7525   -1.0433    6.7509 C   0  0  2  0  0  0  0  0  0  0  0  0
  -10.5812   -0.7188    7.8247 O   0  0  0  0  0  0  0  0  0  0  0  0
  -10.6231   -1.3223    5.5480 C   0  0  0  0  0  0  0  0  0  0  0  0
   -6.6127   -1.8096    8.0621 N   0  0  0  0  0  0  0  0  0  0  0  0
   -5.8149   -1.4992    9.2048 C   0  0  2  0  0  0  0  0  0  0  0  0
   -5.1435   -0.2198    9.1589 C   0  0  0  0  0  0  0  0  0  0  0  0
   -4.8294    0.1856    7.9451 O   0  0  0  0  0  0  0  0  0  0  0  0
   -4.7476   -2.6344    9.2602 C   0  0  2  0  0  0  0  0  0  0  0  0
   -4.3996   -2.8739    7.9342 O   0  0  0  0  0  0  0  0  0  0  0  0
   -5.3201   -3.8414    9.9282 C   0  0  0  0  0  0  0  0  0  0  0  0
   -4.7974    0.6211   10.2413 N   0  0  0  0  0  0  0  0  0  0  0  0
   -4.3050    1.9805   10.0084 C   0  0  2  0  0  0  0  0  0  0  0  0
   -2.8789    1.9354    9.5840 C   0  0  0  0  0  0  0  0  0  0  0  0
   -2.1320    0.8047    9.7433 O   0  0  0  0  0  0  0  0  0  0  0  0
   -4.4943    2.7302   11.2738 C   0  0  0  0  0  0  0  0  0  0  0  0
   -5.2052    1.8086   12.1996 C   0  0  0  0  0  0  0  0  0  0  0  0
   -4.8967    0.4055   11.6475 C   0  0  0  0  0  0  0  0  0  0  0  0
   -2.3743    2.9578    9.0763 O   0  0  0  0  0  0  0  0  0  0  0  0
  1  2  1  0
  2  3  1  0
  2  5  1  6
  3  4  2  0
  3  6  1  0
  6  7  1  0
  7  8  1  0
  7 10  1  1
  8  9  2  0
  8 11  1  0
 11 12  1  0
 12 13  1  0
 12 15  1  6
 13 14  2  0
 13 19  1  0
 15 16  1  0
 16 17  2  0
 16 18  1  0
 20 19  1  6
 20 21  1  0
 20 23  1  0
 21 22  2  0
 21 26  1  0
 23 24  1  0
 23 25  1  6
 27 26  1  1
 27 28  1  0
 27 30  1  0
 28 29  2  0
 28 33  1  0
 30 31  1  0
 30 32  1  6
 34 33  1  6
 34 35  1  0
 34 37  1  0
 35 36  2  0
 35 40  1  0
 37 38  1  0
 37 39  1  6
 40 41  1  0
 40 46  1  0
 41 42  1  1
 41 44  1  0
 42 43  1  0
 42 47  2  0
 44 45  1  0
 45 46  1  0
M  CHG  1   1   1
M  END
$$$$
