
     RDKit          3D

 47 47  0  0  0  0  0  0  0  0999 V2000
  -16.3222   -7.4119    4.4919 N   0  0  0  0  0  4  0  0  0  0  0  0
  -16.4046   -8.7828    3.8786 C   0  0  2  0  0  0  0  0  0  0  0  0
  -15.7761   -9.7505    4.8165 C   0  0  0  0  0  0  0  0  0  0  0  0
  -16.5107  -10.3936    5.5979 O   0  0  0  0  0  0  0  0  0  0  0  0
  -15.6660   -8.7231    2.5661 C   0  0  0  0  0  0  0  0  0  0  0  0
  -14.3881   -9.9698    4.8603 N   0  0  0  0  0  0  0  0  0  0  0  0
  -13.4005   -9.4040    3.9623 C   0  0  2  0  0  0  0  0  0  0  0  0
  -12.5218   -8.5070    4.7550 C   0  0  0  0  0  0  0  0  0  0  0  0
  -12.8185   -7.2562    4.8269 O   0  0  0  0  0  0  0  0  0  0  0  0
  -14.1313   -8.4342    2.9914 C   0  0  0  0  0  0  0  0  0  0  0  0
  -11.3594   -8.9392    5.4444 N   0  0  0  0  0  0  0  0  0  0  0  0
  -10.7146   -8.0068    6.3533 C   0  0  2  0  0  0  0  0  0  0  0  0
  -10.7339   -6.6115    5.8508 C   0  0  0  0  0  0  0  0  0  0  0  0
  -11.3990   -6.2965    4.8191 O   0  0  0  0  0  0  0  0  0  0  0  0
   -9.2557   -8.4979    6.4510 C   0  0  0  0  0  0  0  0  0  0  0  0
   -8.6378   -7.8727    7.6450 C   0  0  0  0  0  0  0  0  0  0  0  0
   -7.4312   -8.0013    7.9511 O   0  0  0  0  0  0  0  0  0  0  0  0
   -9.4322   -7.0881    8.4980 O   0  0  0  0  0  0  0  0  0  0  0  0
   -9.9821   -5.6566    6.5794 N   0  0  0  0  0  0  0  0  0  0  0  0
   -9.9215   -4.2353    6.1954 C   0  0  2  0  0  0  0  0  0  0  0  0
   -9.1108   -3.5668    7.1926 C   0  0  0  0  0  0  0  0  0  0  0  0
   -8.6461   -4.2905    8.1556 O   0  0  0  0  0  0  0  0  0  0  0  0
  -11.3751   -3.6985    6.1960 C   0  0  2  0  0  0  0  0  0  0  0  0
  -11.9120   -3.9300    7.4737 O   0  0  0  0  0  0  0  0  0  0  0  0
  -12.1565   -4.6253    5.2818 C   0  0  0  0  0  0  0  0  0  0  0  0
   -8.7502   -2.1898    7.2574 N   0  0  0  0  0  0  0  0  0  0  0  0
   -7.8033   -1.7498    8.2395 C   0  0  2  0  0  0  0  0  0  0  0  0
   -7.3546   -0.3573    8.0733 C   0  0  0  0  0  0  0  0  0  0  0  0
   -7.0807    0.0864    6.9332 O   0  0  0  0  0  0  0  0  0  0  0  0
   -6.6009   -2.6636    8.3357 C   0  0  2  0  0  0  0  0  0  0  0  0
   -5.7920   -2.2543    9.3918 O   0  0  0  0  0  0  0  0  0  0  0  0
   -5.8505   -2.6500    7.0498 C   0  0  0  0  0  0  0  0  0  0  0  0
   -7.2146    0.5311    9.2019 N   0  0  0  0  0  0  0  0  0  0  0  0
   -6.8277    1.9236    9.0721 C   0  0  2  0  0  0  0  0  0  0  0  0
   -5.3842    2.0691    9.3741 C   0  0  0  0  0  0  0  0  0  0  0  0
   -4.8423    1.1660   10.1101 O   0  0  0  0  0  0  0  0  0  0  0  0
   -7.6425    2.7028   10.1330 C   0  0  2  0  0  0  0  0  0  0  0  0
   -7.0725    3.9792   10.3052 O   0  0  0  0  0  0  0  0  0  0  0  0
   -7.7179    1.9416   11.4245 C   0  0  0  0  0  0  0  0  0  0  0  0
   -4.5949    3.1352    8.9015 N   0  0  0  0  0  0  0  0  0  0  0  0
   -3.1852    3.4357    8.9850 C   0  0  2  0  0  0  0  0  0  0  0  0
   -2.9123    4.6461    9.7909 C   0  0  0  0  0  0  0  0  0  0  0  0
   -3.3331    4.7808   11.0886 O   0  0  0  0  0  0  0  0  0  0  0  0
   -2.8400    3.6165    7.5264 C   0  0  0  0  0  0  0  0  0  0  0  0
   -4.0598    4.3772    7.0275 C   0  0  0  0  0  0  0  0  0  0  0  0
   -5.1220    4.2520    8.0988 C   0  0  0  0  0  0  0  0  0  0  0  0
   -2.2676    5.5822    9.2579 O   0  0  0  0  0  0  0  0  0  0  0  0
  1  2  1  6
  2  3  1  1
  5  2  1  6
  3  4  2  0
  3  6  1  0
  7  6  1  1
  7  8  1  0
 10  7  1  6
  8  9  2  0
  8 11  1  0
 12 11  1  6
 12 13  1  0
 12 15  1  0
 13 14  2  0
 13 19  1  0
 15 16  1  6
 16 17  2  0
 16 18  1  0
 20 19  1  1
 20 21  1  0
 20 23  1  0
 21 22  2  0
 21 26  1  0
 23 24  1  1
 25 23  1  6
 27 26  1  6
 27 28  1  0
 27 30  1  0
 28 29  2  0
 28 33  1  0
 30 31  1  1
 32 30  1  6
 34 33  1  1
 34 35  1  0
 34 37  1  0
 35 36  2  0
 35 40  1  0
 37 38  1  1
 39 37  1  6
 40 41  1  0
 46 40  1  1
 41 42  1  1
 44 41  1  1
 42 43  1  0
 42 47  2  0
 44 45  1  0
 45 46  1  6
M  CHG  1   1   1
M  END
$$$$
