
     RDKit          3D

 47 47  0  0  0  0  0  0  0  0999 V2000
  -15.6819   -5.5592    2.1245 N   0  0  0  0  0  4  0  0  0  0  0  0
  -14.3951   -5.5553    2.9033 C   0  0  2  0  0  0  0  0  0  0  0  0
  -14.7143   -5.8247    4.3304 C   0  0  0  0  0  0  0  0  0  0  0  0
  -15.7864   -6.4061    4.6070 O   0  0  0  0  0  0  0  0  0  0  0  0
  -13.7743   -4.1939    2.7213 C   0  0  0  0  0  0  0  0  0  0  0  0
  -13.8586   -5.4502    5.3812 N   0  0  0  0  0  0  0  0  0  0  0  0
  -13.7724   -6.0799    6.6843 C   0  0  2  0  0  0  0  0  0  0  0  0
  -12.6576   -5.4407    7.4285 C   0  0  0  0  0  0  0  0  0  0  0  0
  -12.3310   -5.9147    8.5802 O   0  0  0  0  0  0  0  0  0  0  0  0
  -13.2848   -7.5423    6.4817 C   0  0  0  0  0  0  0  0  0  0  0  0
  -11.9206   -4.3255    6.9527 N   0  0  0  0  0  0  0  0  0  0  0  0
  -10.6051   -4.0808    7.5189 C   0  0  2  0  0  0  0  0  0  0  0  0
  -10.0053   -2.8096    7.0455 C   0  0  0  0  0  0  0  0  0  0  0  0
   -9.7690   -2.6155    5.8157 O   0  0  0  0  0  0  0  0  0  0  0  0
   -9.7432   -5.2662    7.0380 C   0  0  0  0  0  0  0  0  0  0  0  0
   -9.7465   -6.2997    8.1011 C   0  0  0  0  0  0  0  0  0  0  0  0
   -9.4617   -7.5021    7.9024 O   0  0  0  0  0  0  0  0  0  0  0  0
  -10.0872   -5.9334    9.4140 O   0  0  0  0  0  0  0  0  0  0  0  0
   -9.7178   -1.8304    8.0285 N   0  0  0  0  0  0  0  0  0  0  0  0
   -9.4851   -0.4147    7.6926 C   0  0  2  0  0  0  0  0  0  0  0  0
   -8.0947   -0.3006    7.3021 C   0  0  0  0  0  0  0  0  0  0  0  0
   -7.8369   -0.2935    6.0370 O   0  0  0  0  0  0  0  0  0  0  0  0
   -9.7838    0.4135    8.9678 C   0  0  2  0  0  0  0  0  0  0  0  0
   -9.1385   -0.2182   10.0443 O   0  0  0  0  0  0  0  0  0  0  0  0
  -11.2639    0.2210    9.2461 C   0  0  0  0  0  0  0  0  0  0  0  0
   -6.9486   -0.1944    8.1421 N   0  0  0  0  0  0  0  0  0  0  0  0
   -5.6460   -0.4483    7.6005 C   0  0  2  0  0  0  0  0  0  0  0  0
   -4.7376   -1.1682    8.5086 C   0  0  0  0  0  0  0  0  0  0  0  0
   -4.7371   -0.9117    9.7359 O   0  0  0  0  0  0  0  0  0  0  0  0
   -4.9715    0.8099    7.0985 C   0  0  2  0  0  0  0  0  0  0  0  0
   -3.7659    0.4766    6.4882 O   0  0  0  0  0  0  0  0  0  0  0  0
   -4.7564    1.7545    8.2290 C   0  0  0  0  0  0  0  0  0  0  0  0
   -3.8277   -2.1777    8.0233 N   0  0  0  0  0  0  0  0  0  0  0  0
   -2.9814   -2.9689    8.8968 C   0  0  2  0  0  0  0  0  0  0  0  0
   -1.6421   -2.3420    8.9935 C   0  0  0  0  0  0  0  0  0  0  0  0
   -1.3232   -1.4906    8.0855 O   0  0  0  0  0  0  0  0  0  0  0  0
   -2.8378   -4.3561    8.2249 C   0  0  2  0  0  0  0  0  0  0  0  0
   -2.1163   -4.2134    7.0237 O   0  0  0  0  0  0  0  0  0  0  0  0
   -4.1794   -4.9918    8.0030 C   0  0  0  0  0  0  0  0  0  0  0  0
   -0.7190   -2.6345   10.0159 N   0  0  0  0  0  0  0  0  0  0  0  0
    0.5344   -2.0407   10.4171 C   0  0  2  0  0  0  0  0  0  0  0  0
    1.6811   -2.9546   10.2205 C   0  0  0  0  0  0  0  0  0  0  0  0
    1.6736   -3.9609    9.2896 O   0  0  0  0  0  0  0  0  0  0  0  0
    0.2644   -1.7491   11.8736 C   0  0  0  0  0  0  0  0  0  0  0  0
   -0.4987   -2.9989   12.2873 C   0  0  0  0  0  0  0  0  0  0  0  0
   -0.9103   -3.7026   11.0117 C   0  0  0  0  0  0  0  0  0  0  0  0
    2.6987   -2.7945   10.9381 O   0  0  0  0  0  0  0  0  0  0  0  0
  1  2  1  6
  2  3  1  1
  5  2  1  6
  3  4  2  0
  3  6  1  0
  7  6  1  6
  7  8  1  0
 10  7  1  6
  8  9  2  0
  8 11  1  0
 12 11  1  6
 12 13  1  0
 12 15  1  0
 13 14  2  0
 13 19  1  0
 15 16  1  6
 16 17  2  0
 16 18  1  0
 20 19  1  1
 20 21  1  0
 20 23  1  0
 21 22  2  0
 21 26  1  0
 23 24  1  1
 25 23  1  6
 27 26  1  1
 27 28  1  0
 27 30  1  0
 28 29  2  0
 28 33  1  0
 30 31  1  1
 32 30  1  6
 34 33  1  6
 34 35  1  0
 34 37  1  0
 35 36  2  0
 35 40  1  0
 37 38  1  6
 39 37  1  6
 40 41  1  0
 46 40  1  1
 41 42  1  1
 44 41  1  1
 42 43  1  0
 42 47  2  0
 44 45  1  0
 45 46  1  6
M  CHG  1   1   1
M  END
$$$$
