
     RDKit          3D

 47 47  0  0  0  0  0  0  0  0999 V2000
  -17.3417  -10.4786    3.2173 N   0  0  0  0  0  4  0  0  0  0  0  0
  -16.8953   -9.0491    3.0771 C   0  0  2  0  0  0  0  0  0  0  0  0
  -16.3696   -8.5948    4.3917 C   0  0  0  0  0  0  0  0  0  0  0  0
  -17.1829   -8.2887    5.2909 O   0  0  0  0  0  0  0  0  0  0  0  0
  -18.1023   -8.2501    2.6564 C   0  0  0  0  0  0  0  0  0  0  0  0
  -14.9937   -8.4945    4.6630 N   0  0  0  0  0  0  0  0  0  0  0  0
  -14.3932   -8.1109    5.9256 C   0  0  2  0  0  0  0  0  0  0  0  0
  -13.3414   -7.1011    5.6440 C   0  0  0  0  0  0  0  0  0  0  0  0
  -12.7077   -7.1638    4.5250 O   0  0  0  0  0  0  0  0  0  0  0  0
  -13.5938   -9.3288    6.4689 C   0  0  0  0  0  0  0  0  0  0  0  0
  -12.9792   -6.0604    6.5378 N   0  0  0  0  0  0  0  0  0  0  0  0
  -11.9904   -5.0912    6.0973 C   0  0  2  0  0  0  0  0  0  0  0  0
  -10.7480   -5.1326    6.9064 C   0  0  0  0  0  0  0  0  0  0  0  0
  -10.6255   -5.9383    7.8768 O   0  0  0  0  0  0  0  0  0  0  0  0
  -12.6753   -3.7209    6.2767 C   0  0  0  0  0  0  0  0  0  0  0  0
  -11.7629   -2.6771    5.7513 C   0  0  0  0  0  0  0  0  0  0  0  0
  -10.9367   -2.8745    4.8322 O   0  0  0  0  0  0  0  0  0  0  0  0
  -11.8081   -1.3851    6.3017 O   0  0  0  0  0  0  0  0  0  0  0  0
   -9.7129   -4.2374    6.5391 N   0  0  0  0  0  0  0  0  0  0  0  0
   -8.4509   -4.1332    7.2925 C   0  0  2  0  0  0  0  0  0  0  0  0
   -8.1532   -2.7209    7.4165 C   0  0  0  0  0  0  0  0  0  0  0  0
   -8.7949   -1.9132    6.6402 O   0  0  0  0  0  0  0  0  0  0  0  0
   -7.3641   -4.8698    6.4694 C   0  0  2  0  0  0  0  0  0  0  0  0
   -7.4947   -4.4596    5.1318 O   0  0  0  0  0  0  0  0  0  0  0  0
   -7.7748   -6.3315    6.4604 C   0  0  0  0  0  0  0  0  0  0  0  0
   -7.2278   -2.0887    8.2966 N   0  0  0  0  0  0  0  0  0  0  0  0
   -7.1393   -0.6583    8.3247 C   0  0  2  0  0  0  0  0  0  0  0  0
   -5.8379   -0.1365    8.7744 C   0  0  0  0  0  0  0  0  0  0  0  0
   -5.3304   -0.5429    9.8464 O   0  0  0  0  0  0  0  0  0  0  0  0
   -8.2489   -0.0247    9.1354 C   0  0  2  0  0  0  0  0  0  0  0  0
   -9.0985   -1.0183    9.6129 O   0  0  0  0  0  0  0  0  0  0  0  0
   -8.9908    0.9573    8.2976 C   0  0  0  0  0  0  0  0  0  0  0  0
   -5.1134    0.8487    8.0082 N   0  0  0  0  0  0  0  0  0  0  0  0
   -3.8591    1.4306    8.4482 C   0  0  2  0  0  0  0  0  0  0  0  0
   -4.1272    2.6718    9.2120 C   0  0  0  0  0  0  0  0  0  0  0  0
   -5.3122    3.1633    9.1402 O   0  0  0  0  0  0  0  0  0  0  0  0
   -3.0726    1.7921    7.1647 C   0  0  2  0  0  0  0  0  0  0  0  0
   -2.2063    2.8672    7.4430 O   0  0  0  0  0  0  0  0  0  0  0  0
   -4.0033    2.0995    6.0279 C   0  0  0  0  0  0  0  0  0  0  0  0
   -3.1581    3.3264    9.9964 N   0  0  0  0  0  0  0  0  0  0  0  0
   -3.2391    4.2186   11.1287 C   0  0  2  0  0  0  0  0  0  0  0  0
   -2.7416    5.5761   10.8151 C   0  0  0  0  0  0  0  0  0  0  0  0
   -3.0364    6.6687   11.5887 O   0  0  0  0  0  0  0  0  0  0  0  0
   -2.3704    3.4962   12.1301 C   0  0  0  0  0  0  0  0  0  0  0  0
   -1.2357    3.0115   11.2397 C   0  0  0  0  0  0  0  0  0  0  0  0
   -1.7062    3.1643    9.8090 C   0  0  0  0  0  0  0  0  0  0  0  0
   -2.0200    5.7247    9.7985 O   0  0  0  0  0  0  0  0  0  0  0  0
  1  2  1  6
  2  3  1  1
  5  2  1  6
  3  4  2  0
  3  6  1  0
  7  6  1  6
  7  8  1  0
 10  7  1  6
  8  9  2  0
  8 11  1  0
 12 11  1  1
 12 13  1  0
 12 15  1  0
 13 14  2  0
 13 19  1  0
 15 16  1  6
 16 17  2  0
 16 18  1  0
 20 19  1  6
 20 21  1  0
 20 23  1  0
 21 22  2  0
 21 26  1  0
 23 24  1  6
 25 23  1  6
 27 26  1  1
 27 28  1  0
 27 30  1  0
 28 29  2  0
 28 33  1  0
 30 31  1  6
 32 30  1  6
 34 33  1  6
 34 35  1  0
 34 37  1  0
 35 36  2  0
 35 40  1  0
 37 38  1  1
 39 37  1  6
 40 41  1  0
 46 40  1  1
 41 42  1  6
 44 41  1  1
 42 43  1  0
 42 47  2  0
 44 45  1  0
 45 46  1  6
M  CHG  1   1   1
M  END
$$$$
