
     RDKit          3D

 47 47  0  0  0  0  0  0  0  0999 V2000
  -17.4213   -9.3986    5.1657 N   0  0  0  0  0  4  0  0  0  0  0  0
  -18.0052   -8.6756    4.0532 C   0  0  2  0  0  0  0  0  0  0  0  0
  -17.1397   -8.8637    2.8684 C   0  0  0  0  0  0  0  0  0  0  0  0
  -17.3820   -8.2242    1.8097 O   0  0  0  0  0  0  0  0  0  0  0  0
  -18.2039   -7.2279    4.4033 C   0  0  0  0  0  0  0  0  0  0  0  0
  -16.0286   -9.7290    2.8280 N   0  0  0  0  0  0  0  0  0  0  0  0
  -15.1601   -9.9119    1.6700 C   0  0  2  0  0  0  0  0  0  0  0  0
  -13.8954   -9.1791    1.7673 C   0  0  0  0  0  0  0  0  0  0  0  0
  -13.0237   -9.3300    0.8468 O   0  0  0  0  0  0  0  0  0  0  0  0
  -15.9098   -9.4736    0.4103 C   0  0  0  0  0  0  0  0  0  0  0  0
  -13.6396   -8.3295    2.8477 N   0  0  0  0  0  0  0  0  0  0  0  0
  -12.3935   -7.5834    2.9180 C   0  0  2  0  0  0  0  0  0  0  0  0
  -12.5199   -6.7025    4.1115 C   0  0  0  0  0  0  0  0  0  0  0  0
  -13.7083   -6.3806    4.4612 O   0  0  0  0  0  0  0  0  0  0  0  0
  -12.2952   -6.6114    1.7436 C   0  0  0  0  0  0  0  0  0  0  0  0
  -11.6987   -7.4049    0.6298 C   0  0  0  0  0  0  0  0  0  0  0  0
  -12.2735   -7.5593   -0.4649 O   0  0  0  0  0  0  0  0  0  0  0  0
  -10.4529   -7.9982    0.8126 O   0  0  0  0  0  0  0  0  0  0  0  0
  -11.4333   -6.2043    4.8742 N   0  0  0  0  0  0  0  0  0  0  0  0
  -11.8121   -5.4517    6.0774 C   0  0  2  0  0  0  0  0  0  0  0  0
  -10.6681   -4.8790    6.7876 C   0  0  0  0  0  0  0  0  0  0  0  0
   -9.8716   -5.5175    7.5381 O   0  0  0  0  0  0  0  0  0  0  0  0
  -12.4812   -6.5382    6.9616 C   0  0  2  0  0  0  0  0  0  0  0  0
  -11.6684   -7.6692    6.9803 O   0  0  0  0  0  0  0  0  0  0  0  0
  -13.8658   -6.8679    6.4514 C   0  0  0  0  0  0  0  0  0  0  0  0
  -10.4303   -3.4757    6.6158 N   0  0  0  0  0  0  0  0  0  0  0  0
   -9.0465   -2.9745    6.5833 C   0  0  2  0  0  0  0  0  0  0  0  0
   -8.8199   -2.2433    7.8308 C   0  0  0  0  0  0  0  0  0  0  0  0
   -9.6736   -1.5093    8.3850 O   0  0  0  0  0  0  0  0  0  0  0  0
   -8.9535   -2.0087    5.3760 C   0  0  2  0  0  0  0  0  0  0  0  0
   -8.2691   -0.8526    5.7504 O   0  0  0  0  0  0  0  0  0  0  0  0
  -10.3276   -1.6096    4.8907 C   0  0  0  0  0  0  0  0  0  0  0  0
   -7.5361   -2.3555    8.4891 N   0  0  0  0  0  0  0  0  0  0  0  0
   -7.3096   -1.5400    9.6391 C   0  0  2  0  0  0  0  0  0  0  0  0
   -6.4475   -0.3994    9.4259 C   0  0  0  0  0  0  0  0  0  0  0  0
   -5.6944   -0.4815    8.3478 O   0  0  0  0  0  0  0  0  0  0  0  0
   -6.6446   -2.4963   10.6754 C   0  0  2  0  0  0  0  0  0  0  0  0
   -5.6849   -1.7235   11.3224 O   0  0  0  0  0  0  0  0  0  0  0  0
   -6.0525   -3.6755    9.9756 C   0  0  0  0  0  0  0  0  0  0  0  0
   -6.3272    0.7620   10.2230 N   0  0  0  0  0  0  0  0  0  0  0  0
   -5.4869    1.8824    9.7953 C   0  0  2  0  0  0  0  0  0  0  0  0
   -4.0541    1.5621   10.0412 C   0  0  0  0  0  0  0  0  0  0  0  0
   -3.1350    1.6276    9.0349 O   0  0  0  0  0  0  0  0  0  0  0  0
   -5.9377    3.0738   10.5548 C   0  0  0  0  0  0  0  0  0  0  0  0
   -7.1225    2.6399   11.3419 C   0  0  0  0  0  0  0  0  0  0  0  0
   -6.9677    1.1124   11.4482 C   0  0  0  0  0  0  0  0  0  0  0  0
   -3.7056    1.2297   11.1926 O   0  0  0  0  0  0  0  0  0  0  0  0
  1  2  1  0
  2  3  1  0
  2  5  1  1
  3  4  2  0
  3  6  1  0
  6  7  1  0
  7  8  1  0
  7 10  1  6
  8  9  2  0
  8 11  1  0
 11 12  1  0
 12 13  1  0
 12 15  1  6
 13 14  2  0
 13 19  1  0
 15 16  1  0
 16 17  2  0
 16 18  1  0
 20 19  1  6
 20 21  1  0
 20 23  1  0
 21 22  2  0
 21 26  1  0
 23 24  1  0
 23 25  1  6
 27 26  1  1
 27 28  1  0
 27 30  1  0
 28 29  2  0
 28 33  1  0
 30 31  1  0
 30 32  1  1
 34 33  1  6
 34 35  1  0
 34 37  1  0
 35 36  2  0
 35 40  1  0
 37 38  1  0
 37 39  1  6
 40 41  1  0
 40 46  1  0
 41 42  1  1
 41 44  1  0
 42 43  1  0
 42 47  2  0
 44 45  1  0
 45 46  1  0
M  CHG  1   1   1
M  END
$$$$
