
     RDKit          3D

 47 47  0  0  0  0  0  0  0  0999 V2000
  -18.6562  -10.2806    4.2319 N   0  0  0  0  0  4  0  0  0  0  0  0
  -18.3331   -8.8466    4.5506 C   0  0  2  0  0  0  0  0  0  0  0  0
  -16.8793   -8.6353    4.3212 C   0  0  0  0  0  0  0  0  0  0  0  0
  -16.0783   -9.5251    4.6825 O   0  0  0  0  0  0  0  0  0  0  0  0
  -18.7053   -8.6217    5.9938 C   0  0  0  0  0  0  0  0  0  0  0  0
  -16.3695   -7.4735    3.7154 N   0  0  0  0  0  0  0  0  0  0  0  0
  -14.9756   -7.1944    3.4307 C   0  0  2  0  0  0  0  0  0  0  0  0
  -14.6079   -5.9382    4.1321 C   0  0  0  0  0  0  0  0  0  0  0  0
  -15.5441   -5.1202    4.4670 O   0  0  0  0  0  0  0  0  0  0  0  0
  -14.8562   -6.8207    1.9262 C   0  0  0  0  0  0  0  0  0  0  0  0
  -13.2770   -5.5708    4.4590 N   0  0  0  0  0  0  0  0  0  0  0  0
  -12.8971   -5.5462    5.8613 C   0  0  2  0  0  0  0  0  0  0  0  0
  -11.4690   -5.1994    6.0617 C   0  0  0  0  0  0  0  0  0  0  0  0
  -10.6016   -6.0976    6.2784 O   0  0  0  0  0  0  0  0  0  0  0  0
  -13.1527   -6.9821    6.3634 C   0  0  0  0  0  0  0  0  0  0  0  0
  -12.8490   -7.0242    7.8140 C   0  0  0  0  0  0  0  0  0  0  0  0
  -13.6780   -7.3631    8.6881 O   0  0  0  0  0  0  0  0  0  0  0  0
  -11.5648   -6.6658    8.2574 O   0  0  0  0  0  0  0  0  0  0  0  0
  -11.1264   -3.8262    5.9937 N   0  0  0  0  0  0  0  0  0  0  0  0
   -9.7297   -3.3568    5.9965 C   0  0  2  0  0  0  0  0  0  0  0  0
   -9.3429   -3.2030    7.3840 C   0  0  0  0  0  0  0  0  0  0  0  0
  -10.0500   -2.4006    8.1072 O   0  0  0  0  0  0  0  0  0  0  0  0
   -9.7011   -2.0003    5.2479 C   0  0  2  0  0  0  0  0  0  0  0  0
  -10.7107   -1.1918    5.7970 O   0  0  0  0  0  0  0  0  0  0  0  0
  -10.1779   -2.2984    3.8376 C   0  0  0  0  0  0  0  0  0  0  0  0
   -8.2643   -3.8291    8.0734 N   0  0  0  0  0  0  0  0  0  0  0  0
   -7.4079   -3.0440    8.9131 C   0  0  2  0  0  0  0  0  0  0  0  0
   -7.1401   -1.6859    8.4113 C   0  0  0  0  0  0  0  0  0  0  0  0
   -7.2107   -1.4405    7.1838 O   0  0  0  0  0  0  0  0  0  0  0  0
   -6.0997   -3.7403    9.2193 C   0  0  2  0  0  0  0  0  0  0  0  0
   -5.5503   -3.2033   10.3799 O   0  0  0  0  0  0  0  0  0  0  0  0
   -5.1670   -3.5946    8.0680 C   0  0  0  0  0  0  0  0  0  0  0  0
   -6.7897   -0.6066    9.3028 N   0  0  0  0  0  0  0  0  0  0  0  0
   -6.4305    0.7206    8.8390 C   0  0  2  0  0  0  0  0  0  0  0  0
   -5.2581    1.2132    9.6000 C   0  0  0  0  0  0  0  0  0  0  0  0
   -5.1803    0.8849   10.8398 O   0  0  0  0  0  0  0  0  0  0  0  0
   -7.6443    1.6318    9.1435 C   0  0  2  0  0  0  0  0  0  0  0  0
   -8.7960    1.0777    8.5516 O   0  0  0  0  0  0  0  0  0  0  0  0
   -7.3955    3.0380    8.6811 C   0  0  0  0  0  0  0  0  0  0  0  0
   -4.2455    2.0127    9.0359 N   0  0  0  0  0  0  0  0  0  0  0  0
   -2.8117    2.0556    9.2001 C   0  0  2  0  0  0  0  0  0  0  0  0
   -2.3516    3.3174    9.8206 C   0  0  0  0  0  0  0  0  0  0  0  0
   -1.4942    3.3460   10.8899 O   0  0  0  0  0  0  0  0  0  0  0  0
   -2.3512    1.9074    7.7700 C   0  0  0  0  0  0  0  0  0  0  0  0
   -3.3630    2.7811    7.0431 C   0  0  0  0  0  0  0  0  0  0  0  0
   -4.4907    3.0477    8.0171 C   0  0  0  0  0  0  0  0  0  0  0  0
   -2.7667    4.4012    9.3418 O   0  0  0  0  0  0  0  0  0  0  0  0
  1  2  1  6
  2  3  1  1
  5  2  1  6
  3  4  2  0
  3  6  1  0
  7  6  1  6
  7  8  1  0
 10  7  1  6
  8  9  2  0
  8 11  1  0
 12 11  1  6
 12 13  1  0
 12 15  1  0
 13 14  2  0
 13 19  1  0
 15 16  1  6
 16 17  2  0
 16 18  1  0
 20 19  1  1
 20 21  1  0
 20 23  1  0
 21 22  2  0
 21 26  1  0
 23 24  1  1
 25 23  1  6
 27 26  1  6
 27 28  1  0
 27 30  1  0
 28 29  2  0
 28 33  1  0
 30 31  1  1
 32 30  1  6
 34 33  1  1
 34 35  1  0
 34 37  1  0
 35 36  2  0
 35 40  1  0
 37 38  1  6
 39 37  1  6
 40 41  1  0
 46 40  1  1
 41 42  1  6
 44 41  1  1
 42 43  1  0
 42 47  2  0
 44 45  1  0
 45 46  1  6
M  CHG  1   1   1
M  END
$$$$
