
     RDKit          3D

 47 47  0  0  0  0  0  0  0  0999 V2000
  -12.0013  -12.3506    3.9228 N   0  0  0  0  0  4  0  0  0  0  0  0
  -13.2425  -12.2728    4.6676 C   0  0  2  0  0  0  0  0  0  0  0  0
  -13.7504  -10.8860    4.5849 C   0  0  0  0  0  0  0  0  0  0  0  0
  -14.3965  -10.5167    3.5677 O   0  0  0  0  0  0  0  0  0  0  0  0
  -13.0447  -12.7354    6.0835 C   0  0  0  0  0  0  0  0  0  0  0  0
  -13.5638   -9.9126    5.5863 N   0  0  0  0  0  0  0  0  0  0  0  0
  -13.7236   -8.4760    5.3881 C   0  0  2  0  0  0  0  0  0  0  0  0
  -12.6009   -7.8558    4.6805 C   0  0  0  0  0  0  0  0  0  0  0  0
  -11.4166   -8.2642    4.9264 O   0  0  0  0  0  0  0  0  0  0  0  0
  -13.9055   -7.8020    6.7496 C   0  0  0  0  0  0  0  0  0  0  0  0
  -12.8149   -6.8324    3.7524 N   0  0  0  0  0  0  0  0  0  0  0  0
  -13.1282   -5.4854    4.2018 C   0  0  2  0  0  0  0  0  0  0  0  0
  -12.2139   -5.2215    5.3467 C   0  0  0  0  0  0  0  0  0  0  0  0
  -12.6066   -5.6239    6.4965 O   0  0  0  0  0  0  0  0  0  0  0  0
  -14.5242   -5.4486    4.8210 C   0  0  0  0  0  0  0  0  0  0  0  0
  -14.9524   -4.0221    4.7322 C   0  0  0  0  0  0  0  0  0  0  0  0
  -14.2614   -3.1491    4.1727 O   0  0  0  0  0  0  0  0  0  0  0  0
  -16.1690   -3.6442    5.2930 O   0  0  0  0  0  0  0  0  0  0  0  0
  -10.9597   -4.5665    5.2526 N   0  0  0  0  0  0  0  0  0  0  0  0
  -10.4614   -3.9949    6.5105 C   0  0  2  0  0  0  0  0  0  0  0  0
   -9.6547   -2.7890    6.3205 C   0  0  0  0  0  0  0  0  0  0  0  0
   -9.1067   -2.4322    5.2352 O   0  0  0  0  0  0  0  0  0  0  0  0
   -9.5682   -5.1340    7.0715 C   0  0  2  0  0  0  0  0  0  0  0  0
   -8.2314   -4.8091    6.8533 O   0  0  0  0  0  0  0  0  0  0  0  0
   -9.9210   -6.4576    6.4315 C   0  0  0  0  0  0  0  0  0  0  0  0
   -9.4725   -1.9401    7.4613 N   0  0  0  0  0  0  0  0  0  0  0  0
   -8.6562   -0.7216    7.3342 C   0  0  2  0  0  0  0  0  0  0  0  0
   -7.3878   -0.9752    8.0192 C   0  0  0  0  0  0  0  0  0  0  0  0
   -6.9787   -2.1144    8.3503 O   0  0  0  0  0  0  0  0  0  0  0  0
   -9.4328    0.4089    8.0537 C   0  0  2  0  0  0  0  0  0  0  0  0
   -9.6770    0.0429    9.3772 O   0  0  0  0  0  0  0  0  0  0  0  0
  -10.7606    0.6706    7.3819 C   0  0  0  0  0  0  0  0  0  0  0  0
   -6.5303    0.1428    8.3491 N   0  0  0  0  0  0  0  0  0  0  0  0
   -5.2244   -0.1502    8.8464 C   0  0  2  0  0  0  0  0  0  0  0  0
   -4.4409    1.0002    9.2369 C   0  0  0  0  0  0  0  0  0  0  0  0
   -4.4694    1.9952    8.3737 O   0  0  0  0  0  0  0  0  0  0  0  0
   -4.5089   -0.8796    7.6687 C   0  0  2  0  0  0  0  0  0  0  0  0
   -4.8749   -0.1746    6.5260 O   0  0  0  0  0  0  0  0  0  0  0  0
   -4.9355   -2.3100    7.6193 C   0  0  0  0  0  0  0  0  0  0  0  0
   -3.6702    1.1712   10.4097 N   0  0  0  0  0  0  0  0  0  0  0  0
   -3.2985    2.5089   10.8753 C   0  0  2  0  0  0  0  0  0  0  0  0
   -2.1725    3.0344   10.0557 C   0  0  0  0  0  0  0  0  0  0  0  0
   -2.2062    4.2970    9.5396 O   0  0  0  0  0  0  0  0  0  0  0  0
   -2.9423    2.3825   12.3094 C   0  0  0  0  0  0  0  0  0  0  0  0
   -3.2234    0.9710   12.6838 C   0  0  0  0  0  0  0  0  0  0  0  0
   -3.1871    0.2103   11.3463 C   0  0  0  0  0  0  0  0  0  0  0  0
   -1.1895    2.2942    9.8469 O   0  0  0  0  0  0  0  0  0  0  0  0
  1  2  1  0
  2  3  1  0
  2  5  1  1
  3  4  2  0
  3  6  1  0
  6  7  1  0
  7  8  1  0
  7 10  1  1
  8  9  2  0
  8 11  1  0
 11 12  1  0
 12 13  1  0
 12 15  1  1
 13 14  2  0
 13 19  1  0
 15 16  1  0
 16 17  2  0
 16 18  1  0
 20 19  1  6
 20 21  1  0
 20 23  1  0
 21 22  2  0
 21 26  1  0
 23 24  1  0
 23 25  1  6
 27 26  1  1
 27 28  1  0
 27 30  1  0
 28 29  2  0
 28 33  1  0
 30 31  1  0
 30 32  1  6
 34 33  1  6
 34 35  1  0
 34 37  1  0
 35 36  2  0
 35 40  1  0
 37 38  1  0
 37 39  1  6
 40 41  1  0
 40 46  1  0
 41 42  1  6
 41 44  1  0
 42 43  1  0
 42 47  2  0
 44 45  1  0
 45 46  1  0
M  CHG  1   1   1
M  END
$$$$
