
     RDKit          3D

 47 47  0  0  0  0  0  0  0  0999 V2000
  -16.8483  -10.1384    3.0890 N   0  0  0  0  0  4  0  0  0  0  0  0
  -16.6908  -11.0032    4.2417 C   0  0  2  0  0  0  0  0  0  0  0  0
  -15.6900  -10.3971    5.1468 C   0  0  0  0  0  0  0  0  0  0  0  0
  -14.8665  -11.1350    5.7516 O   0  0  0  0  0  0  0  0  0  0  0  0
  -16.3212  -12.3963    3.8167 C   0  0  0  0  0  0  0  0  0  0  0  0
  -15.5799   -9.0145    5.3945 N   0  0  0  0  0  0  0  0  0  0  0  0
  -14.4989   -8.3896    6.1491 C   0  0  2  0  0  0  0  0  0  0  0  0
  -13.9575   -7.1890    5.5080 C   0  0  0  0  0  0  0  0  0  0  0  0
  -14.4139   -6.8405    4.3677 O   0  0  0  0  0  0  0  0  0  0  0  0
  -13.3777   -9.4106    6.3528 C   0  0  0  0  0  0  0  0  0  0  0  0
  -12.9566   -6.4342    6.1270 N   0  0  0  0  0  0  0  0  0  0  0  0
  -12.7814   -5.0298    5.7931 C   0  0  2  0  0  0  0  0  0  0  0  0
  -11.6710   -4.5469    6.6593 C   0  0  0  0  0  0  0  0  0  0  0  0
  -11.9292   -4.4292    7.9074 O   0  0  0  0  0  0  0  0  0  0  0  0
  -13.9943   -4.2239    6.2548 C   0  0  0  0  0  0  0  0  0  0  0  0
  -13.7003   -2.8158    5.8586 C   0  0  0  0  0  0  0  0  0  0  0  0
  -14.1111   -2.3209    4.7914 O   0  0  0  0  0  0  0  0  0  0  0  0
  -12.9391   -2.0183    6.7083 O   0  0  0  0  0  0  0  0  0  0  0  0
  -10.3697   -4.2142    6.2046 N   0  0  0  0  0  0  0  0  0  0  0  0
   -9.4554   -3.7223    7.2437 C   0  0  2  0  0  0  0  0  0  0  0  0
   -8.8647   -2.4213    6.9282 C   0  0  0  0  0  0  0  0  0  0  0  0
   -9.3488   -1.5666    6.1279 O   0  0  0  0  0  0  0  0  0  0  0  0
   -8.3446   -4.8066    7.2603 C   0  0  2  0  0  0  0  0  0  0  0  0
   -7.4634   -4.5348    8.3043 O   0  0  0  0  0  0  0  0  0  0  0  0
   -7.6220   -4.8554    5.9331 C   0  0  0  0  0  0  0  0  0  0  0  0
   -7.6342   -2.0879    7.5838 N   0  0  0  0  0  0  0  0  0  0  0  0
   -7.1344   -0.7044    7.5254 C   0  0  2  0  0  0  0  0  0  0  0  0
   -5.8462   -0.6782    8.2199 C   0  0  0  0  0  0  0  0  0  0  0  0
   -5.6034   -1.2998    9.2827 O   0  0  0  0  0  0  0  0  0  0  0  0
   -8.1645    0.1709    8.2815 C   0  0  2  0  0  0  0  0  0  0  0  0
   -7.7308    1.4963    8.3010 O   0  0  0  0  0  0  0  0  0  0  0  0
   -8.3306   -0.2942    9.7094 C   0  0  0  0  0  0  0  0  0  0  0  0
   -4.7647    0.1086    7.6675 N   0  0  0  0  0  0  0  0  0  0  0  0
   -3.4444   -0.1587    8.1407 C   0  0  2  0  0  0  0  0  0  0  0  0
   -2.8894    0.8458    9.0197 C   0  0  0  0  0  0  0  0  0  0  0  0
   -3.4683    2.0261    8.9299 O   0  0  0  0  0  0  0  0  0  0  0  0
   -2.5735   -0.2458    6.8504 C   0  0  2  0  0  0  0  0  0  0  0  0
   -3.1114   -1.2992    6.1170 O   0  0  0  0  0  0  0  0  0  0  0  0
   -1.1431   -0.4739    7.2142 C   0  0  0  0  0  0  0  0  0  0  0  0
   -1.8251    0.7058    9.9396 N   0  0  0  0  0  0  0  0  0  0  0  0
   -1.5025    1.7778   10.8835 C   0  0  2  0  0  0  0  0  0  0  0  0
   -0.7584    2.8604   10.1835 C   0  0  0  0  0  0  0  0  0  0  0  0
   -0.7464    4.1352   10.6698 O   0  0  0  0  0  0  0  0  0  0  0  0
   -0.7112    1.1650   11.9779 C   0  0  0  0  0  0  0  0  0  0  0  0
   -0.6816   -0.2958   11.7004 C   0  0  0  0  0  0  0  0  0  0  0  0
   -0.9598   -0.3999   10.1904 C   0  0  0  0  0  0  0  0  0  0  0  0
   -0.1409    2.5797    9.1358 O   0  0  0  0  0  0  0  0  0  0  0  0
  1  2  1  0
  2  3  1  0
  2  5  1  6
  3  4  2  0
  3  6  1  0
  6  7  1  0
  7  8  1  0
  7 10  1  6
  8  9  2  0
  8 11  1  0
 11 12  1  0
 12 13  1  0
 12 15  1  1
 13 14  2  0
 13 19  1  0
 15 16  1  0
 16 17  2  0
 16 18  1  0
 20 19  1  6
 20 21  1  0
 20 23  1  0
 21 22  2  0
 21 26  1  0
 23 24  1  0
 23 25  1  6
 27 26  1  1
 27 28  1  0
 27 30  1  0
 28 29  2  0
 28 33  1  0
 30 31  1  0
 30 32  1  1
 34 33  1  6
 34 35  1  0
 34 37  1  0
 35 36  2  0
 35 40  1  0
 37 38  1  0
 37 39  1  1
 40 41  1  0
 40 46  1  0
 41 42  1  6
 41 44  1  0
 42 43  1  0
 42 47  2  0
 44 45  1  0
 45 46  1  0
M  CHG  1   1   1
M  END
$$$$
