
     RDKit          3D

 47 47  0  0  0  0  0  0  0  0999 V2000
  -16.1622   -5.2781    6.4362 N   0  0  0  0  0  4  0  0  0  0  0  0
  -16.7042   -6.6254    6.0445 C   0  0  2  0  0  0  0  0  0  0  0  0
  -15.5577   -7.5574    5.8774 C   0  0  0  0  0  0  0  0  0  0  0  0
  -15.7170   -8.7638    6.1656 O   0  0  0  0  0  0  0  0  0  0  0  0
  -17.4592   -6.4378    4.7534 C   0  0  0  0  0  0  0  0  0  0  0  0
  -14.3009   -7.1352    5.4094 N   0  0  0  0  0  0  0  0  0  0  0  0
  -13.1357   -7.9728    5.2033 C   0  0  2  0  0  0  0  0  0  0  0  0
  -11.9282   -7.1201    5.3452 C   0  0  0  0  0  0  0  0  0  0  0  0
  -10.7686   -7.6621    5.2062 O   0  0  0  0  0  0  0  0  0  0  0  0
  -13.1073   -8.3999    3.7086 C   0  0  0  0  0  0  0  0  0  0  0  0
  -11.9654   -5.7309    5.6315 N   0  0  0  0  0  0  0  0  0  0  0  0
  -10.7092   -5.0012    5.6524 C   0  0  2  0  0  0  0  0  0  0  0  0
  -10.4786   -4.2949    6.9361 C   0  0  0  0  0  0  0  0  0  0  0  0
  -11.3968   -4.1985    7.8042 O   0  0  0  0  0  0  0  0  0  0  0  0
  -10.8347   -3.9690    4.5131 C   0  0  0  0  0  0  0  0  0  0  0  0
   -9.9309   -4.3839    3.4134 C   0  0  0  0  0  0  0  0  0  0  0  0
   -9.2069   -5.4038    3.4561 O   0  0  0  0  0  0  0  0  0  0  0  0
   -9.8645   -3.6027    2.2474 O   0  0  0  0  0  0  0  0  0  0  0  0
   -9.1899   -3.7432    7.1426 N   0  0  0  0  0  0  0  0  0  0  0  0
   -8.8228   -3.0271    8.3769 C   0  0  2  0  0  0  0  0  0  0  0  0
   -7.9359   -1.9499    7.9875 C   0  0  0  0  0  0  0  0  0  0  0  0
   -6.6789   -2.2278    7.8904 O   0  0  0  0  0  0  0  0  0  0  0  0
   -8.1056   -4.0440    9.3002 C   0  0  2  0  0  0  0  0  0  0  0  0
   -7.2021   -4.7722    8.5078 O   0  0  0  0  0  0  0  0  0  0  0  0
   -9.1644   -5.0570    9.6977 C   0  0  0  0  0  0  0  0  0  0  0  0
   -8.2692   -0.5963    7.6921 N   0  0  0  0  0  0  0  0  0  0  0  0
   -7.2552    0.4147    7.7580 C   0  0  2  0  0  0  0  0  0  0  0  0
   -5.9261   -0.0238    7.3005 C   0  0  0  0  0  0  0  0  0  0  0  0
   -5.4146   -1.0729    7.7584 O   0  0  0  0  0  0  0  0  0  0  0  0
   -7.1410    1.0322    9.1348 C   0  0  2  0  0  0  0  0  0  0  0  0
   -6.7665    0.0538   10.0512 O   0  0  0  0  0  0  0  0  0  0  0  0
   -8.4366    1.6575    9.5184 C   0  0  0  0  0  0  0  0  0  0  0  0
   -5.1763    0.7300    6.3247 N   0  0  0  0  0  0  0  0  0  0  0  0
   -3.7827    0.4662    6.0185 C   0  0  2  0  0  0  0  0  0  0  0  0
   -2.9973    0.4213    7.2743 C   0  0  0  0  0  0  0  0  0  0  0  0
   -3.5401    0.9199    8.3268 O   0  0  0  0  0  0  0  0  0  0  0  0
   -3.2915    1.6590    5.1627 C   0  0  2  0  0  0  0  0  0  0  0  0
   -2.8352    2.6816    6.0170 O   0  0  0  0  0  0  0  0  0  0  0  0
   -4.3690    2.1401    4.2351 C   0  0  0  0  0  0  0  0  0  0  0  0
   -1.7049   -0.1307    7.3634 N   0  0  0  0  0  0  0  0  0  0  0  0
   -0.7863   -0.3276    8.4597 C   0  0  2  0  0  0  0  0  0  0  0  0
    0.4414    0.4864    8.3213 C   0  0  0  0  0  0  0  0  0  0  0  0
    0.7153    1.5554    9.1346 O   0  0  0  0  0  0  0  0  0  0  0  0
   -0.5184   -1.8095    8.3513 C   0  0  0  0  0  0  0  0  0  0  0  0
   -0.4230   -1.9816    6.8424 C   0  0  0  0  0  0  0  0  0  0  0  0
   -0.9854   -0.7207    6.2217 C   0  0  0  0  0  0  0  0  0  0  0  0
    1.2606    0.1783    7.4213 O   0  0  0  0  0  0  0  0  0  0  0  0
  1  2  1  6
  2  3  1  6
  5  2  1  6
  3  4  2  0
  3  6  1  0
  7  6  1  6
  7  8  1  0
 10  7  1  6
  8  9  2  0
  8 11  1  0
 12 11  1  1
 12 13  1  0
 12 15  1  0
 13 14  2  0
 13 19  1  0
 15 16  1  6
 16 17  2  0
 16 18  1  0
 20 19  1  6
 20 21  1  0
 20 23  1  0
 21 22  2  0
 21 26  1  0
 23 24  1  6
 25 23  1  6
 27 26  1  1
 27 28  1  0
 27 30  1  0
 28 29  2  0
 28 33  1  0
 30 31  1  1
 32 30  1  6
 34 33  1  1
 34 35  1  0
 34 37  1  0
 35 36  2  0
 35 40  1  0
 37 38  1  1
 39 37  1  6
 40 41  1  0
 46 40  1  1
 41 42  1  6
 44 41  1  1
 42 43  1  0
 42 47  2  0
 44 45  1  0
 45 46  1  6
M  CHG  1   1   1
M  END
$$$$
