
     RDKit          3D

 47 47  0  0  0  0  0  0  0  0999 V2000
  -14.9477  -12.5384    3.3393 N   0  0  0  0  0  4  0  0  0  0  0  0
  -15.4756  -11.2764    2.8597 C   0  0  2  0  0  0  0  0  0  0  0  0
  -14.6442  -10.1834    3.4094 C   0  0  0  0  0  0  0  0  0  0  0  0
  -15.1968   -9.2008    3.9730 O   0  0  0  0  0  0  0  0  0  0  0  0
  -16.9287  -11.1363    3.2160 C   0  0  0  0  0  0  0  0  0  0  0  0
  -13.2368  -10.1525    3.3519 N   0  0  0  0  0  0  0  0  0  0  0  0
  -12.4627   -9.4817    2.3129 C   0  0  2  0  0  0  0  0  0  0  0  0
  -12.4551   -8.0225    2.4409 C   0  0  0  0  0  0  0  0  0  0  0  0
  -11.7355   -7.3375    1.6390 O   0  0  0  0  0  0  0  0  0  0  0  0
  -13.0223   -9.8723    0.9435 C   0  0  0  0  0  0  0  0  0  0  0  0
  -13.2181   -7.3843    3.4233 N   0  0  0  0  0  0  0  0  0  0  0  0
  -13.8093   -6.0813    3.1646 C   0  0  2  0  0  0  0  0  0  0  0  0
  -13.1982   -5.1585    4.1604 C   0  0  0  0  0  0  0  0  0  0  0  0
  -13.6740   -3.9712    4.2070 O   0  0  0  0  0  0  0  0  0  0  0  0
  -15.2930   -6.0951    3.5279 C   0  0  0  0  0  0  0  0  0  0  0  0
  -16.0112   -6.2393    2.2281 C   0  0  0  0  0  0  0  0  0  0  0  0
  -17.2334   -6.4726    2.1607 O   0  0  0  0  0  0  0  0  0  0  0  0
  -15.2958   -6.1092    1.0412 O   0  0  0  0  0  0  0  0  0  0  0  0
  -12.1437   -5.4986    5.0454 N   0  0  0  0  0  0  0  0  0  0  0  0
  -11.7886   -4.4568    6.0181 C   0  0  2  0  0  0  0  0  0  0  0  0
  -10.3645   -4.1204    6.0138 C   0  0  0  0  0  0  0  0  0  0  0  0
   -9.4597   -4.7522    5.3914 O   0  0  0  0  0  0  0  0  0  0  0  0
  -12.1625   -5.1150    7.3733 C   0  0  2  0  0  0  0  0  0  0  0  0
  -11.1695   -6.0275    7.7218 O   0  0  0  0  0  0  0  0  0  0  0  0
  -13.5157   -5.7843    7.2899 C   0  0  0  0  0  0  0  0  0  0  0  0
   -9.9627   -2.9765    6.7790 N   0  0  0  0  0  0  0  0  0  0  0  0
   -8.6204   -2.4063    6.5781 C   0  0  2  0  0  0  0  0  0  0  0  0
   -8.0470   -2.1679    7.9036 C   0  0  0  0  0  0  0  0  0  0  0  0
   -8.6177   -1.5204    8.8146 O   0  0  0  0  0  0  0  0  0  0  0  0
   -8.8170   -1.0622    5.8338 C   0  0  2  0  0  0  0  0  0  0  0  0
   -9.7268   -0.2675    6.5309 O   0  0  0  0  0  0  0  0  0  0  0  0
   -9.3540   -1.2854    4.4393 C   0  0  0  0  0  0  0  0  0  0  0  0
   -6.7374   -2.7016    8.2102 N   0  0  0  0  0  0  0  0  0  0  0  0
   -6.1702   -2.3729    9.4786 C   0  0  2  0  0  0  0  0  0  0  0  0
   -5.0201   -1.4983    9.4317 C   0  0  0  0  0  0  0  0  0  0  0  0
   -4.2955   -1.6119    8.3370 O   0  0  0  0  0  0  0  0  0  0  0  0
   -5.7448   -3.7438   10.0871 C   0  0  2  0  0  0  0  0  0  0  0  0
   -5.1915   -3.4374   11.3268 O   0  0  0  0  0  0  0  0  0  0  0  0
   -4.7738   -4.4259    9.1802 C   0  0  0  0  0  0  0  0  0  0  0  0
   -4.5993   -0.5605   10.4022 N   0  0  0  0  0  0  0  0  0  0  0  0
   -3.5033    0.3694   10.1222 C   0  0  2  0  0  0  0  0  0  0  0  0
   -2.1987   -0.3382   10.2366 C   0  0  0  0  0  0  0  0  0  0  0  0
   -2.0183   -1.5756    9.6907 O   0  0  0  0  0  0  0  0  0  0  0  0
   -3.6271    1.4858   11.0906 C   0  0  0  0  0  0  0  0  0  0  0  0
   -4.8771    1.2342   11.8560 C   0  0  0  0  0  0  0  0  0  0  0  0
   -5.1184   -0.2778   11.7002 C   0  0  0  0  0  0  0  0  0  0  0  0
   -1.2656    0.2242   10.8455 O   0  0  0  0  0  0  0  0  0  0  0  0
  1  2  1  0
  2  3  1  0
  2  5  1  1
  3  4  2  0
  3  6  1  0
  6  7  1  0
  7  8  1  0
  7 10  1  6
  8  9  2  0
  8 11  1  0
 11 12  1  0
 12 13  1  0
 12 15  1  1
 13 14  2  0
 13 19  1  0
 15 16  1  0
 16 17  2  0
 16 18  1  0
 20 19  1  6
 20 21  1  0
 20 23  1  0
 21 22  2  0
 21 26  1  0
 23 24  1  0
 23 25  1  6
 27 26  1  1
 27 28  1  0
 27 30  1  0
 28 29  2  0
 28 33  1  0
 30 31  1  0
 30 32  1  6
 34 33  1  6
 34 35  1  0
 34 37  1  0
 35 36  2  0
 35 40  1  0
 37 38  1  0
 37 39  1  6
 40 41  1  0
 40 46  1  0
 41 42  1  1
 41 44  1  0
 42 43  1  0
 42 47  2  0
 44 45  1  0
 45 46  1  0
M  CHG  1   1   1
M  END
$$$$
