
     RDKit          3D

 47 47  0  0  0  0  0  0  0  0999 V2000
  -14.4081   -6.9461    1.1072 N   0  0  0  0  0  4  0  0  0  0  0  0
  -14.8141   -5.8268    2.0263 C   0  0  2  0  0  0  0  0  0  0  0  0
  -13.6553   -5.4970    2.8977 C   0  0  0  0  0  0  0  0  0  0  0  0
  -13.8093   -4.6544    3.8089 O   0  0  0  0  0  0  0  0  0  0  0  0
  -15.9894   -6.3213    2.8300 C   0  0  0  0  0  0  0  0  0  0  0  0
  -12.3928   -6.0943    2.7366 N   0  0  0  0  0  0  0  0  0  0  0  0
  -11.2630   -5.9701    3.6366 C   0  0  2  0  0  0  0  0  0  0  0  0
  -11.7478   -5.3533    4.8974 C   0  0  0  0  0  0  0  0  0  0  0  0
  -12.9195   -5.6674    5.3288 O   0  0  0  0  0  0  0  0  0  0  0  0
  -10.2979   -4.8994    3.0539 C   0  0  0  0  0  0  0  0  0  0  0  0
  -10.9996   -4.4255    5.6673 N   0  0  0  0  0  0  0  0  0  0  0  0
  -11.3895   -4.2101    7.0503 C   0  0  2  0  0  0  0  0  0  0  0  0
  -10.4942   -3.2615    7.7565 C   0  0  0  0  0  0  0  0  0  0  0  0
  -10.1617   -3.4514    8.9645 O   0  0  0  0  0  0  0  0  0  0  0  0
  -11.2872   -5.6009    7.7092 C   0  0  0  0  0  0  0  0  0  0  0  0
  -10.7050   -5.4287    9.0618 C   0  0  0  0  0  0  0  0  0  0  0  0
  -11.2363   -5.8644   10.1079 O   0  0  0  0  0  0  0  0  0  0  0  0
   -9.4892   -4.7387    9.2034 O   0  0  0  0  0  0  0  0  0  0  0  0
  -10.0298   -2.1457    7.0169 N   0  0  0  0  0  0  0  0  0  0  0  0
   -9.3799   -0.9872    7.6546 C   0  0  2  0  0  0  0  0  0  0  0  0
   -8.0389   -0.9090    7.1122 C   0  0  0  0  0  0  0  0  0  0  0  0
   -7.3629   -2.0073    7.0519 O   0  0  0  0  0  0  0  0  0  0  0  0
   -9.3577   -1.2571    9.1803 C   0  0  2  0  0  0  0  0  0  0  0  0
   -8.7040   -2.4841    9.3842 O   0  0  0  0  0  0  0  0  0  0  0  0
  -10.7999   -1.5251    9.5718 C   0  0  0  0  0  0  0  0  0  0  0  0
   -7.3494    0.2399    6.6271 N   0  0  0  0  0  0  0  0  0  0  0  0
   -5.9345    0.1776    6.4063 C   0  0  2  0  0  0  0  0  0  0  0  0
   -5.1271    0.1208    7.6363 C   0  0  0  0  0  0  0  0  0  0  0  0
   -5.2769    0.9863    8.5309 O   0  0  0  0  0  0  0  0  0  0  0  0
   -5.4358    1.2997    5.5219 C   0  0  2  0  0  0  0  0  0  0  0  0
   -6.2206    2.4313    5.7234 O   0  0  0  0  0  0  0  0  0  0  0  0
   -5.4675    0.8728    4.0959 C   0  0  0  0  0  0  0  0  0  0  0  0
   -4.1478   -0.9174    7.8500 N   0  0  0  0  0  0  0  0  0  0  0  0
   -3.2691   -0.9537    9.0041 C   0  0  2  0  0  0  0  0  0  0  0  0
   -2.3375   -2.0999    8.8842 C   0  0  0  0  0  0  0  0  0  0  0  0
   -2.7515   -3.1305    8.2380 O   0  0  0  0  0  0  0  0  0  0  0  0
   -4.1785   -1.1742   10.2373 C   0  0  2  0  0  0  0  0  0  0  0  0
   -4.6474   -2.5023   10.2321 O   0  0  0  0  0  0  0  0  0  0  0  0
   -5.3034   -0.1808   10.2652 C   0  0  0  0  0  0  0  0  0  0  0  0
   -1.0434   -2.1110    9.4393 N   0  0  0  0  0  0  0  0  0  0  0  0
    0.0252   -1.1410    9.4779 C   0  0  2  0  0  0  0  0  0  0  0  0
    1.2162   -1.5818    8.7189 C   0  0  0  0  0  0  0  0  0  0  0  0
    2.2039   -2.3528    9.2750 O   0  0  0  0  0  0  0  0  0  0  0  0
    0.2812   -1.0499   10.9630 C   0  0  0  0  0  0  0  0  0  0  0  0
    0.1578   -2.5102   11.3728 C   0  0  0  0  0  0  0  0  0  0  0  0
   -0.4943   -3.2360   10.2154 C   0  0  0  0  0  0  0  0  0  0  0  0
    1.3182   -1.2326    7.5173 O   0  0  0  0  0  0  0  0  0  0  0  0
  1  2  1  6
  2  3  1  1
  5  2  1  6
  3  4  2  0
  3  6  1  0
  7  6  1  6
  7  8  1  0
 10  7  1  6
  8  9  2  0
  8 11  1  0
 12 11  1  6
 12 13  1  0
 12 15  1  0
 13 14  2  0
 13 19  1  0
 15 16  1  6
 16 17  2  0
 16 18  1  0
 20 19  1  6
 20 21  1  0
 20 23  1  0
 21 22  2  0
 21 26  1  0
 23 24  1  6
 25 23  1  6
 27 26  1  1
 27 28  1  0
 27 30  1  0
 28 29  2  0
 28 33  1  0
 30 31  1  6
 32 30  1  6
 34 33  1  6
 34 35  1  0
 34 37  1  0
 35 36  2  0
 35 40  1  0
 37 38  1  6
 39 37  1  6
 40 41  1  0
 46 40  1  1
 41 42  1  6
 44 41  1  1
 42 43  1  0
 42 47  2  0
 44 45  1  0
 45 46  1  6
M  CHG  1   1   1
M  END
$$$$
