
     RDKit          3D

 47 47  0  0  0  0  0  0  0  0999 V2000
  -19.7742   -8.3133    3.1424 N   0  0  0  0  0  4  0  0  0  0  0  0
  -18.5385   -7.5596    3.2215 C   0  0  2  0  0  0  0  0  0  0  0  0
  -17.5347   -8.3819    3.9315 C   0  0  0  0  0  0  0  0  0  0  0  0
  -17.4656   -9.6194    3.7025 O   0  0  0  0  0  0  0  0  0  0  0  0
  -18.7675   -6.2275    3.8780 C   0  0  0  0  0  0  0  0  0  0  0  0
  -16.6186   -7.8752    4.8743 N   0  0  0  0  0  0  0  0  0  0  0  0
  -15.4291   -8.5808    5.3389 C   0  0  2  0  0  0  0  0  0  0  0  0
  -14.1913   -7.8178    5.1619 C   0  0  0  0  0  0  0  0  0  0  0  0
  -13.0819   -8.3595    5.4871 O   0  0  0  0  0  0  0  0  0  0  0  0
  -15.3187   -9.9143    4.5967 C   0  0  0  0  0  0  0  0  0  0  0  0
  -14.2169   -6.5176    4.6487 N   0  0  0  0  0  0  0  0  0  0  0  0
  -13.0117   -5.9210    4.0957 C   0  0  2  0  0  0  0  0  0  0  0  0
  -12.4886   -5.0166    5.1563 C   0  0  0  0  0  0  0  0  0  0  0  0
  -13.3244   -4.6389    6.0490 O   0  0  0  0  0  0  0  0  0  0  0  0
  -13.3696   -4.9818    2.9453 C   0  0  0  0  0  0  0  0  0  0  0  0
  -12.0610   -4.5521    2.3715 C   0  0  0  0  0  0  0  0  0  0  0  0
  -10.9734   -5.0190    2.7611 O   0  0  0  0  0  0  0  0  0  0  0  0
  -12.0463   -3.5939    1.3621 O   0  0  0  0  0  0  0  0  0  0  0  0
  -11.1514   -4.5528    5.2438 N   0  0  0  0  0  0  0  0  0  0  0  0
  -10.7769   -3.9784    6.5428 C   0  0  2  0  0  0  0  0  0  0  0  0
   -9.4829   -3.2955    6.5238 C   0  0  0  0  0  0  0  0  0  0  0  0
   -8.3888   -3.8003    6.1321 O   0  0  0  0  0  0  0  0  0  0  0  0
  -10.6897   -5.2307    7.4561 C   0  0  2  0  0  0  0  0  0  0  0  0
  -10.3211   -4.8302    8.7382 O   0  0  0  0  0  0  0  0  0  0  0  0
   -9.7112   -6.2374    6.8949 C   0  0  0  0  0  0  0  0  0  0  0  0
   -9.4549   -1.9390    6.9869 N   0  0  0  0  0  0  0  0  0  0  0  0
   -8.2004   -1.1727    6.9078 C   0  0  2  0  0  0  0  0  0  0  0  0
   -7.5024   -1.3495    8.1821 C   0  0  0  0  0  0  0  0  0  0  0  0
   -8.0767   -1.5148    9.2856 O   0  0  0  0  0  0  0  0  0  0  0  0
   -8.5994    0.3122    6.7212 C   0  0  2  0  0  0  0  0  0  0  0  0
   -9.3322    0.7445    7.8263 O   0  0  0  0  0  0  0  0  0  0  0  0
   -9.4508    0.4964    5.4866 C   0  0  0  0  0  0  0  0  0  0  0  0
   -6.0555   -1.3360    8.1999 N   0  0  0  0  0  0  0  0  0  0  0  0
   -5.4112   -1.2304    9.4697 C   0  0  2  0  0  0  0  0  0  0  0  0
   -4.6481   -0.0200    9.6751 C   0  0  0  0  0  0  0  0  0  0  0  0
   -4.1992    0.5338    8.5669 O   0  0  0  0  0  0  0  0  0  0  0  0
   -4.4496   -2.4563    9.5266 C   0  0  2  0  0  0  0  0  0  0  0  0
   -3.6899   -2.3791    8.3631 O   0  0  0  0  0  0  0  0  0  0  0  0
   -5.2392   -3.7213    9.6111 C   0  0  0  0  0  0  0  0  0  0  0  0
   -4.3396    0.6177   10.8985 N   0  0  0  0  0  0  0  0  0  0  0  0
   -3.6653    1.9175   10.9187 C   0  0  2  0  0  0  0  0  0  0  0  0
   -2.2135    1.7377   10.6434 C   0  0  0  0  0  0  0  0  0  0  0  0
   -1.3920    2.8126   10.4654 O   0  0  0  0  0  0  0  0  0  0  0  0
   -3.9176    2.5133   12.2531 C   0  0  0  0  0  0  0  0  0  0  0  0
   -4.8400    1.5819   12.9555 C   0  0  0  0  0  0  0  0  0  0  0  0
   -4.6345    0.2347   12.2403 C   0  0  0  0  0  0  0  0  0  0  0  0
   -1.7572    0.5779   10.5774 O   0  0  0  0  0  0  0  0  0  0  0  0
  1  2  1  0
  2  3  1  0
  2  5  1  1
  3  4  2  0
  3  6  1  0
  6  7  1  0
  7  8  1  0
  7 10  1  6
  8  9  2  0
  8 11  1  0
 11 12  1  0
 12 13  1  0
 12 15  1  6
 13 14  2  0
 13 19  1  0
 15 16  1  0
 16 17  2  0
 16 18  1  0
 20 19  1  6
 20 21  1  0
 20 23  1  0
 21 22  2  0
 21 26  1  0
 23 24  1  0
 23 25  1  6
 27 26  1  1
 27 28  1  0
 27 30  1  0
 28 29  2  0
 28 33  1  0
 30 31  1  0
 30 32  1  6
 34 33  1  6
 34 35  1  0
 34 37  1  0
 35 36  2  0
 35 40  1  0
 37 38  1  0
 37 39  1  6
 40 41  1  0
 40 46  1  0
 41 42  1  1
 41 44  1  0
 42 43  1  0
 42 47  2  0
 44 45  1  0
 45 46  1  0
M  CHG  1   1   1
M  END
$$$$
