
     RDKit          3D

 47 47  0  0  0  0  0  0  0  0999 V2000
  -18.5266  -10.0401    3.9202 N   0  0  0  0  0  4  0  0  0  0  0  0
  -17.0321   -9.8706    3.9317 C   0  0  2  0  0  0  0  0  0  0  0  0
  -16.7277   -8.4471    4.2351 C   0  0  0  0  0  0  0  0  0  0  0  0
  -17.6727   -7.6303    4.2959 O   0  0  0  0  0  0  0  0  0  0  0  0
  -16.5336  -10.2653    2.5651 C   0  0  0  0  0  0  0  0  0  0  0  0
  -15.4189   -7.9830    4.4549 N   0  0  0  0  0  0  0  0  0  0  0  0
  -15.0288   -6.6157    4.7379 C   0  0  2  0  0  0  0  0  0  0  0  0
  -13.5770   -6.6093    5.0499 C   0  0  0  0  0  0  0  0  0  0  0  0
  -12.7687   -7.2057    4.2445 O   0  0  0  0  0  0  0  0  0  0  0  0
  -15.6922   -6.1929    6.0790 C   0  0  0  0  0  0  0  0  0  0  0  0
  -13.0124   -5.9860    6.1928 N   0  0  0  0  0  0  0  0  0  0  0  0
  -11.7965   -5.2096    6.0201 C   0  0  2  0  0  0  0  0  0  0  0  0
  -11.6988   -4.0786    6.9746 C   0  0  0  0  0  0  0  0  0  0  0  0
  -12.7348   -3.4665    7.3722 O   0  0  0  0  0  0  0  0  0  0  0  0
  -11.8806   -4.6617    4.5807 C   0  0  0  0  0  0  0  0  0  0  0  0
  -10.5767   -4.9046    3.9179 C   0  0  0  0  0  0  0  0  0  0  0  0
   -9.8693   -3.9987    3.4229 O   0  0  0  0  0  0  0  0  0  0  0  0
  -10.0871   -6.2184    3.8264 O   0  0  0  0  0  0  0  0  0  0  0  0
  -10.4009   -3.7241    7.4191 N   0  0  0  0  0  0  0  0  0  0  0  0
  -10.1643   -2.6448    8.3938 C   0  0  2  0  0  0  0  0  0  0  0  0
   -9.0271   -1.8878    7.9118 C   0  0  0  0  0  0  0  0  0  0  0  0
   -8.2812   -2.4490    7.0199 O   0  0  0  0  0  0  0  0  0  0  0  0
   -9.8595   -3.3170    9.7562 C   0  0  2  0  0  0  0  0  0  0  0  0
   -8.8938   -4.3127    9.5311 O   0  0  0  0  0  0  0  0  0  0  0  0
  -11.1164   -4.0836   10.1274 C   0  0  0  0  0  0  0  0  0  0  0  0
   -8.6103   -0.5808    8.2974 N   0  0  0  0  0  0  0  0  0  0  0  0
   -7.2905   -0.1304    7.9658 C   0  0  2  0  0  0  0  0  0  0  0  0
   -6.2355   -0.6133    8.8723 C   0  0  0  0  0  0  0  0  0  0  0  0
   -6.4487   -0.6909   10.1054 O   0  0  0  0  0  0  0  0  0  0  0  0
   -7.2057    1.3755    7.8432 C   0  0  2  0  0  0  0  0  0  0  0  0
   -7.5947    1.9603    9.0448 O   0  0  0  0  0  0  0  0  0  0  0  0
   -8.0631    1.8410    6.7186 C   0  0  0  0  0  0  0  0  0  0  0  0
   -4.9373   -1.0059    8.3795 N   0  0  0  0  0  0  0  0  0  0  0  0
   -3.8196   -1.3192    9.2502 C   0  0  2  0  0  0  0  0  0  0  0  0
   -2.6527   -0.4832    8.8821 C   0  0  0  0  0  0  0  0  0  0  0  0
   -2.6401    0.0238    7.7015 O   0  0  0  0  0  0  0  0  0  0  0  0
   -3.4715   -2.8058    8.9945 C   0  0  2  0  0  0  0  0  0  0  0  0
   -2.8795   -2.9278    7.7222 O   0  0  0  0  0  0  0  0  0  0  0  0
   -4.6846   -3.6782    9.1362 C   0  0  0  0  0  0  0  0  0  0  0  0
   -1.5751   -0.2267    9.7516 N   0  0  0  0  0  0  0  0  0  0  0  0
   -0.5229    0.7619    9.7588 C   0  0  2  0  0  0  0  0  0  0  0  0
    0.8165    0.1628    9.5693 C   0  0  0  0  0  0  0  0  0  0  0  0
    1.0010   -1.1729    9.3223 O   0  0  0  0  0  0  0  0  0  0  0  0
   -0.7022    1.3668   11.1303 C   0  0  0  0  0  0  0  0  0  0  0  0
   -1.0002    0.1277   11.9617 C   0  0  0  0  0  0  0  0  0  0  0  0
   -1.3211   -0.9860   10.9878 C   0  0  0  0  0  0  0  0  0  0  0  0
    1.8193    0.9151    9.6378 O   0  0  0  0  0  0  0  0  0  0  0  0
  1  2  1  6
  2  3  1  6
  5  2  1  6
  3  4  2  0
  3  6  1  0
  7  6  1  1
  7  8  1  0
 10  7  1  6
  8  9  2  0
  8 11  1  0
 12 11  1  1
 12 13  1  0
 12 15  1  0
 13 14  2  0
 13 19  1  0
 15 16  1  6
 16 17  2  0
 16 18  1  0
 20 19  1  6
 20 21  1  0
 20 23  1  0
 21 22  2  0
 21 26  1  0
 23 24  1  6
 25 23  1  6
 27 26  1  1
 27 28  1  0
 27 30  1  0
 28 29  2  0
 28 33  1  0
 30 31  1  1
 32 30  1  6
 34 33  1  6
 34 35  1  0
 34 37  1  0
 35 36  2  0
 35 40  1  0
 37 38  1  6
 39 37  1  6
 40 41  1  0
 46 40  1  1
 41 42  1  1
 44 41  1  1
 42 43  1  0
 42 47  2  0
 44 45  1  0
 45 46  1  6
M  CHG  1   1   1
M  END
$$$$
