
     RDKit          3D

 74 75  0  0  0  0  0  0  0  0999 V2000
    8.0020   49.4341   -0.6631 N   0  0  0  0  0  4  0  0  0  0  0  0
    9.3320   49.9096   -0.9936 C   0  0  2  0  0  0  0  0  0  0  0  0
   10.4027   49.2334   -0.2599 C   0  0  0  0  0  0  0  0  0  0  0  0
   10.8851   49.8097    0.7421 O   0  0  0  0  0  0  0  0  0  0  0  0
    9.3663   51.4155   -0.8851 C   0  0  0  0  0  0  0  0  0  0  0  0
    9.1183   52.0193   -2.1150 O   0  0  0  0  0  0  0  0  0  0  0  0
   10.9470   47.9572   -0.5993 N   0  0  0  0  0  0  0  0  0  0  0  0
   12.0252   47.4122    0.1701 C   0  0  2  0  0  0  0  0  0  0  0  0
   11.8237   47.8831    1.5863 C   0  0  0  0  0  0  0  0  0  0  0  0
   12.1224   49.0614    1.9134 O   0  0  0  0  0  0  0  0  0  0  0  0
   13.4013   47.8523   -0.2211 C   0  0  0  0  0  0  0  0  0  0  0  0
   14.0837   47.0947   -1.2933 C   0  0  1  0  0  0  0  0  0  0  0  0
   13.3813   47.2494   -2.6100 C   0  0  0  0  0  0  0  0  0  0  0  0
   15.4873   47.6955   -1.4490 C   0  0  0  0  0  0  0  0  0  0  0  0
   11.2994   47.0485    2.6148 N   0  0  0  0  0  0  0  0  0  0  0  0
   11.2590   47.4859    3.9953 C   0  0  2  0  0  0  0  0  0  0  0  0
   12.4391   47.0846    4.7864 C   0  0  0  0  0  0  0  0  0  0  0  0
   12.7762   45.8824    4.8109 O   0  0  0  0  0  0  0  0  0  0  0  0
   10.0000   46.7974    4.5762 C   0  0  0  0  0  0  0  0  0  0  0  0
    9.5850   45.6529    3.7553 C   0  0  0  0  0  0  0  0  0  0  0  0
   10.2004   45.2166    2.6118 O   0  0  0  0  0  0  0  0  0  0  0  0
    8.5567   45.0218    4.1630 O   0  0  0  0  0  0  0  0  0  0  0  0
   13.1661   48.0416    5.4930 N   0  0  0  0  0  0  0  0  0  0  0  0
   14.3863   47.7350    6.2181 C   0  0  2  0  0  0  0  0  0  0  0  0
   14.1631   47.4431    7.6373 C   0  0  0  0  0  0  0  0  0  0  0  0
   15.1762   47.4786    8.3985 O   0  0  0  0  0  0  0  0  0  0  0  0
   15.2764   48.9944    6.0806 C   0  0  0  0  0  0  0  0  0  0  0  0
   15.9650   48.8880    4.8892 O   0  0  0  0  0  0  0  0  0  0  0  0
   12.9136   47.1362    8.1962 N   0  0  0  0  0  0  0  0  0  0  0  0
   12.4898   47.5490    9.5554 C   0  0  1  0  0  0  0  0  0  0  0  0
   11.9298   48.9515    9.3059 C   0  0  0  0  0  0  0  0  0  0  0  0
   11.3174   49.3911   10.4633 O   0  0  0  0  0  0  0  0  0  0  0  0
   11.4447   46.5939    9.9873 C   0  0  0  0  0  0  0  0  0  0  0  0
   10.2557   46.7075    9.5145 O   0  0  0  0  0  0  0  0  0  0  0  0
   10.7117   50.9399   10.3511 P   0  0  1  0  0  5  0  0  0  0  0  0
    9.3816   50.8745    9.5978 O   0  0  0  0  0  0  0  0  0  0  0  0
   10.4074   51.6566   11.8475 O   0  0  0  0  0  0  0  0  0  0  0  0
   11.7083   51.9670    9.4572 O   0  0  0  0  0  0  0  0  0  0  0  0
   11.6447   45.5359   10.9107 N   0  0  0  0  0  0  0  0  0  0  0  0
   12.8411   45.1770   11.5906 C   0  0  2  0  0  0  0  0  0  0  0  0
   13.2596   43.7711   11.2863 C   0  0  0  0  0  0  0  0  0  0  0  0
   12.4952   43.0440   10.6259 O   0  0  0  0  0  0  0  0  0  0  0  0
   12.3474   45.0493   13.0698 C   0  0  0  0  0  0  0  0  0  0  0  0
   11.0370   44.2912   12.8610 C   0  0  0  0  0  0  0  0  0  0  0  0
   10.6102   44.6258   11.4300 C   0  0  0  0  0  0  0  0  0  0  0  0
   14.5011   43.3196   11.7666 N   0  0  0  0  0  0  0  0  0  0  0  0
   15.4443   42.4011   11.1251 C   0  0  2  0  0  0  0  0  0  0  0  0
   15.4244   41.1102   11.8816 C   0  0  0  0  0  0  0  0  0  0  0  0
   16.1279   40.1578   11.3992 O   0  0  0  0  0  0  0  0  0  0  0  0
   16.7709   43.1176   11.3558 C   0  0  0  0  0  0  0  0  0  0  0  0
   16.5961   43.9399   12.6130 C   0  0  0  0  0  0  0  0  0  0  0  0
   15.1417   43.6953   13.0005 C   0  0  0  0  0  0  0  0  0  0  0  0
   14.7045   40.8478   13.0655 N   0  0  0  0  0  0  0  0  0  0  0  0
   14.6593   39.4486   13.4913 C   0  0  2  0  0  0  0  0  0  0  0  0
   13.2551   38.9838   13.6477 C   0  0  0  0  0  0  0  0  0  0  0  0
   12.9781   38.3635   14.7410 O   0  0  0  0  0  0  0  0  0  0  0  0
   15.3384   39.3177   14.8589 C   0  0  0  0  0  0  0  0  0  0  0  0
   14.9213   40.4669   15.7010 C   0  0  0  0  0  0  0  0  0  0  0  0
   15.7016   41.3642   16.0923 O   0  0  0  0  0  0  0  0  0  0  0  0
   13.5420   40.5748   16.1049 N   0  0  0  0  0  0  0  0  0  0  0  0
   12.2213   39.1616   12.7152 N   0  0  0  0  0  0  0  0  0  0  0  0
   11.0484   38.3219   12.7718 C   0  0  2  0  0  0  0  0  0  0  0  0
   10.7236   37.6333   11.5225 C   0  0  0  0  0  0  0  0  0  0  0  0
   11.6529   37.2072   10.7363 O   0  0  0  0  0  0  0  0  0  0  0  0
    9.8045   39.0714   13.2761 C   0  0  2  0  0  0  0  0  0  0  0  0
   10.0014   40.4063   13.4673 O   0  0  0  0  0  0  0  0  0  0  0  0
    9.0815   38.3393   14.3573 C   0  0  0  0  0  0  0  0  0  0  0  0
    9.4166   37.3668   11.0553 N   0  0  0  0  0  0  0  0  0  0  0  0
    9.0795   36.1769   10.3026 C   0  0  2  0  0  0  0  0  0  0  0  0
    9.4965   36.2116    8.9080 C   0  0  0  0  0  0  0  0  0  0  0  0
   10.8147   36.4438    8.5657 O   0  0  0  0  0  0  0  0  0  0  0  0
    7.5826   35.8933   10.3844 C   0  0  0  0  0  0  0  0  0  0  0  0
    7.2583   34.9353    9.4354 O   0  0  0  0  0  0  0  0  0  0  0  0
    8.6611   36.0329    7.9950 O   0  0  0  0  0  0  0  0  0  0  0  0
  2  1  1  1
  2  3  1  0
  2  5  1  0
  3  4  2  0
  3  7  1  0
  5  6  1  0
  7  8  1  0
  8  9  1  0
  8 11  1  6
  9 10  2  0
  9 15  1  0
 11 12  1  0
 12 13  1  6
 12 14  1  0
 15 16  1  0
 16 17  1  0
 16 19  1  1
 17 18  2  0
 17 23  1  0
 19 20  1  0
 20 21  1  0
 20 22  2  0
 23 24  1  0
 24 25  1  0
 24 27  1  1
 25 26  2  0
 25 29  1  0
 27 28  1  0
 29 30  1  0
 30 31  1  6
 30 33  1  0
 31 32  1  0
 32 35  1  0
 33 34  2  0
 33 39  1  0
 35 36  2  0
 35 37  1  1
 35 38  1  0
 39 40  1  0
 39 45  1  0
 40 41  1  6
 40 43  1  0
 41 42  2  0
 41 46  1  0
 43 44  1  0
 44 45  1  0
 46 47  1  0
 46 52  1  0
 47 48  1  1
 47 50  1  0
 48 49  2  0
 48 53  1  0
 50 51  1  0
 51 52  1  0
 53 54  1  0
 54 55  1  0
 54 57  1  1
 55 56  2  0
 55 61  1  0
 57 58  1  0
 58 59  2  0
 58 60  1  0
 62 61  1  6
 62 63  1  0
 62 65  1  0
 63 64  2  0
 63 68  1  0
 65 66  1  0
 65 67  1  1
 68 69  1  0
 69 70  1  0
 69 72  1  6
 70 71  1  0
 70 74  2  0
 72 73  1  0
M  CHG  1   1   1
M  END
$$$$
