
     RDKit          3D

 74 75  0  0  0  0  0  0  0  0999 V2000
   21.6313   36.6131   14.6183 N   0  0  0  0  0  4  0  0  0  0  0  0
   20.2493   36.6385   15.0581 C   0  0  2  0  0  0  0  0  0  0  0  0
   19.2893   36.8911   13.9826 C   0  0  0  0  0  0  0  0  0  0  0  0
   19.5771   36.4922   12.8307 O   0  0  0  0  0  0  0  0  0  0  0  0
   20.1159   37.5746   16.2357 C   0  0  0  0  0  0  0  0  0  0  0  0
   18.7886   37.9371   16.4488 O   0  0  0  0  0  0  0  0  0  0  0  0
   18.0396   37.5636   14.1433 N   0  0  0  0  0  0  0  0  0  0  0  0
   17.2500   37.8896   12.9935 C   0  0  2  0  0  0  0  0  0  0  0  0
   17.8270   39.1575   12.4214 C   0  0  0  0  0  0  0  0  0  0  0  0
   19.0127   39.4909   12.6816 O   0  0  0  0  0  0  0  0  0  0  0  0
   15.8020   38.1710   13.2476 C   0  0  0  0  0  0  0  0  0  0  0  0
   14.9375   38.4248   12.0739 C   0  0  1  0  0  0  0  0  0  0  0  0
   15.7367   38.8839   10.8900 C   0  0  0  0  0  0  0  0  0  0  0  0
   14.2842   37.0886   11.6957 C   0  0  0  0  0  0  0  0  0  0  0  0
   17.0883   40.0344   11.5759 N   0  0  0  0  0  0  0  0  0  0  0  0
   17.6824   41.2393   11.0337 C   0  0  2  0  0  0  0  0  0  0  0  0
   16.7701   42.0265   10.1809 C   0  0  0  0  0  0  0  0  0  0  0  0
   16.9358   42.0203    8.9431 O   0  0  0  0  0  0  0  0  0  0  0  0
   18.8653   40.7279   10.1759 C   0  0  0  0  0  0  0  0  0  0  0  0
   19.4975   41.8198    9.4249 C   0  0  0  0  0  0  0  0  0  0  0  0
   19.0329   43.1049    9.3274 O   0  0  0  0  0  0  0  0  0  0  0  0
   20.5763   41.5228    8.8169 O   0  0  0  0  0  0  0  0  0  0  0  0
   15.7360   42.7636   10.7562 N   0  0  0  0  0  0  0  0  0  0  0  0
   14.9028   43.6836   10.0025 C   0  0  2  0  0  0  0  0  0  0  0  0
   14.1392   44.6052   10.8491 C   0  0  0  0  0  0  0  0  0  0  0  0
   13.7905   44.1819   11.9920 O   0  0  0  0  0  0  0  0  0  0  0  0
   13.9284   42.7920    9.1947 C   0  0  0  0  0  0  0  0  0  0  0  0
   13.1662   43.6241    8.4000 O   0  0  0  0  0  0  0  0  0  0  0  0
   13.7806   45.9096   10.4778 N   0  0  0  0  0  0  0  0  0  0  0  0
   14.5536   47.1189   10.8487 C   0  0  1  0  0  0  0  0  0  0  0  0
   15.4161   47.3438    9.6044 C   0  0  0  0  0  0  0  0  0  0  0  0
   16.5723   47.9967    9.9848 O   0  0  0  0  0  0  0  0  0  0  0  0
   13.5726   48.2073   11.0583 C   0  0  0  0  0  0  0  0  0  0  0  0
   13.7614   49.0483   12.0108 O   0  0  0  0  0  0  0  0  0  0  0  0
   17.5618   48.4015    8.7060 P   0  0  1  0  0  5  0  0  0  0  0  0
   16.6738   48.8555    7.5457 O   0  0  0  0  0  0  0  0  0  0  0  0
   18.6263   49.6645    9.0485 O   0  0  0  0  0  0  0  0  0  0  0  0
   18.4534   47.0897    8.1303 O   0  0  0  0  0  0  0  0  0  0  0  0
   12.4030   48.4057   10.2807 N   0  0  0  0  0  0  0  0  0  0  0  0
   11.1613   47.7180   10.3695 C   0  0  2  0  0  0  0  0  0  0  0  0
   10.8000   47.0432    9.0818 C   0  0  0  0  0  0  0  0  0  0  0  0
   11.6237   47.0441    8.1487 O   0  0  0  0  0  0  0  0  0  0  0  0
   10.1378   48.9008   10.4074 C   0  0  0  0  0  0  0  0  0  0  0  0
   10.7173   49.8048    9.3200 C   0  0  0  0  0  0  0  0  0  0  0  0
   12.2034   49.4453    9.2573 C   0  0  0  0  0  0  0  0  0  0  0  0
    9.5359   46.4387    8.9703 N   0  0  0  0  0  0  0  0  0  0  0  0
    9.1688   45.2295    8.2302 C   0  0  2  0  0  0  0  0  0  0  0  0
    8.3483   45.6387    7.0477 C   0  0  0  0  0  0  0  0  0  0  0  0
    7.0789   45.5976    7.1949 O   0  0  0  0  0  0  0  0  0  0  0  0
    8.2905   44.5062    9.2461 C   0  0  0  0  0  0  0  0  0  0  0  0
    7.6877   45.5786   10.1258 C   0  0  0  0  0  0  0  0  0  0  0  0
    8.3124   46.8660    9.5986 C   0  0  0  0  0  0  0  0  0  0  0  0
    8.8413   46.0582    5.7949 N   0  0  0  0  0  0  0  0  0  0  0  0
    7.9309   46.8707    4.9872 C   0  0  2  0  0  0  0  0  0  0  0  0
    8.6004   47.3504    3.7487 C   0  0  0  0  0  0  0  0  0  0  0  0
    8.6666   48.6265    3.5937 O   0  0  0  0  0  0  0  0  0  0  0  0
    7.5160   48.1083    5.7902 C   0  0  0  0  0  0  0  0  0  0  0  0
    6.2265   47.8179    6.4658 C   0  0  0  0  0  0  0  0  0  0  0  0
    5.1874   47.4653    5.8633 O   0  0  0  0  0  0  0  0  0  0  0  0
    6.1428   47.9447    7.8990 N   0  0  0  0  0  0  0  0  0  0  0  0
    9.1574   46.5390    2.7480 N   0  0  0  0  0  0  0  0  0  0  0  0
   10.1680   47.0741    1.8669 C   0  0  2  0  0  0  0  0  0  0  0  0
    9.6746   47.5210    0.5641 C   0  0  0  0  0  0  0  0  0  0  0  0
   10.4335   47.4985   -0.4785 O   0  0  0  0  0  0  0  0  0  0  0  0
   11.3467   46.1093    1.6591 C   0  0  2  0  0  0  0  0  0  0  0  0
   11.9133   45.6689    2.8176 O   0  0  0  0  0  0  0  0  0  0  0  0
   12.2809   46.5537    0.5832 C   0  0  0  0  0  0  0  0  0  0  0  0
    8.3715   48.0046    0.3089 N   0  0  0  0  0  0  0  0  0  0  0  0
    7.5413   47.4958   -0.7627 C   0  0  2  0  0  0  0  0  0  0  0  0
    7.2596   48.4632   -1.8137 C   0  0  0  0  0  0  0  0  0  0  0  0
    8.2293   48.8184   -2.7316 O   0  0  0  0  0  0  0  0  0  0  0  0
    6.2316   46.9394   -0.2121 C   0  0  0  0  0  0  0  0  0  0  0  0
    5.5093   46.3838   -1.2577 O   0  0  0  0  0  0  0  0  0  0  0  0
    6.1293   48.9910   -1.8992 O   0  0  0  0  0  0  0  0  0  0  0  0
  2  1  1  6
  2  3  1  0
  2  5  1  0
  3  4  2  0
  3  7  1  0
  5  6  1  0
  7  8  1  0
  8  9  1  0
  8 11  1  1
  9 10  2  0
  9 15  1  0
 11 12  1  0
 12 13  1  6
 12 14  1  0
 15 16  1  0
 16 17  1  0
 16 19  1  6
 17 18  2  0
 17 23  1  0
 19 20  1  0
 20 21  1  0
 20 22  2  0
 23 24  1  0
 24 25  1  0
 24 27  1  1
 25 26  2  0
 25 29  1  0
 27 28  1  0
 29 30  1  0
 30 31  1  6
 30 33  1  0
 31 32  1  0
 32 35  1  0
 33 34  2  0
 33 39  1  0
 35 36  2  0
 35 37  1  1
 35 38  1  0
 39 40  1  0
 39 45  1  0
 40 41  1  6
 40 43  1  0
 41 42  2  0
 41 46  1  0
 43 44  1  0
 44 45  1  0
 46 47  1  0
 46 52  1  0
 47 48  1  6
 47 50  1  0
 48 49  2  0
 48 53  1  0
 50 51  1  0
 51 52  1  0
 53 54  1  0
 54 55  1  0
 54 57  1  1
 55 56  2  0
 55 61  1  0
 57 58  1  0
 58 59  2  0
 58 60  1  0
 62 61  1  6
 62 63  1  0
 62 65  1  0
 63 64  2  0
 63 68  1  0
 65 66  1  0
 65 67  1  6
 68 69  1  0
 69 70  1  0
 69 72  1  1
 70 71  1  0
 70 74  2  0
 72 73  1  0
M  CHG  1   1   1
M  END
$$$$
