
     RDKit          3D

 74 75  0  0  0  0  0  0  0  0999 V2000
    5.5557   38.9758   19.9965 N   0  0  0  0  0  4  0  0  0  0  0  0
    4.7800   39.8419   19.1291 C   0  0  2  0  0  0  0  0  0  0  0  0
    5.0751   39.6735   17.7055 C   0  0  0  0  0  0  0  0  0  0  0  0
    6.2035   39.2335   17.3861 O   0  0  0  0  0  0  0  0  0  0  0  0
    4.8897   41.2669   19.6170 C   0  0  0  0  0  0  0  0  0  0  0  0
    6.2041   41.7230   19.5619 O   0  0  0  0  0  0  0  0  0  0  0  0
    4.1709   39.9750   16.6418 N   0  0  0  0  0  0  0  0  0  0  0  0
    4.5452   39.7021   15.2863 C   0  0  2  0  0  0  0  0  0  0  0  0
    5.2480   40.9333   14.7783 C   0  0  0  0  0  0  0  0  0  0  0  0
    5.4823   41.8974   15.5532 O   0  0  0  0  0  0  0  0  0  0  0  0
    3.4211   39.4433   14.3324 C   0  0  0  0  0  0  0  0  0  0  0  0
    3.7729   39.0537   12.9491 C   0  0  1  0  0  0  0  0  0  0  0  0
    4.2119   37.6209   12.8749 C   0  0  0  0  0  0  0  0  0  0  0  0
    2.4991   39.1873   12.1036 C   0  0  0  0  0  0  0  0  0  0  0  0
    5.6777   41.0807   13.4281 N   0  0  0  0  0  0  0  0  0  0  0  0
    7.0062   41.5604   13.1062 C   0  0  2  0  0  0  0  0  0  0  0  0
    7.2671   41.6775   11.6579 C   0  0  0  0  0  0  0  0  0  0  0  0
    7.5458   40.6508   11.0040 O   0  0  0  0  0  0  0  0  0  0  0  0
    7.9526   40.4934   13.7083 C   0  0  0  0  0  0  0  0  0  0  0  0
    9.3566   40.9171   13.6365 C   0  0  0  0  0  0  0  0  0  0  0  0
    9.8281   42.1840   13.8587 O   0  0  0  0  0  0  0  0  0  0  0  0
   10.1961   40.0065   13.3400 O   0  0  0  0  0  0  0  0  0  0  0  0
    7.1987   42.9218   11.0330 N   0  0  0  0  0  0  0  0  0  0  0  0
    7.3794   43.1028    9.6035 C   0  0  2  0  0  0  0  0  0  0  0  0
    8.7435   42.8185    9.1480 C   0  0  0  0  0  0  0  0  0  0  0  0
    9.5238   42.2637    9.9789 O   0  0  0  0  0  0  0  0  0  0  0  0
    7.0389   44.5879    9.3285 C   0  0  0  0  0  0  0  0  0  0  0  0
    5.9398   44.9112   10.0983 O   0  0  0  0  0  0  0  0  0  0  0  0
    9.2285   43.1146    7.8655 N   0  0  0  0  0  0  0  0  0  0  0  0
   10.6333   42.9038    7.4416 C   0  0  1  0  0  0  0  0  0  0  0  0
   10.6225   43.4461    6.0104 C   0  0  0  0  0  0  0  0  0  0  0  0
   10.2989   44.7882    6.0528 O   0  0  0  0  0  0  0  0  0  0  0  0
   11.4800   43.7149    8.3450 C   0  0  0  0  0  0  0  0  0  0  0  0
   10.9576   44.7049    8.9752 O   0  0  0  0  0  0  0  0  0  0  0  0
   11.4552   45.7756    5.3699 P   0  0  1  0  0  5  0  0  0  0  0  0
   10.7756   46.6275    4.2960 O   0  0  0  0  0  0  0  0  0  0  0  0
   12.1759   46.8329    6.4690 O   0  0  0  0  0  0  0  0  0  0  0  0
   12.6708   44.9091    4.5831 O   0  0  0  0  0  0  0  0  0  0  0  0
   12.8615   43.4929    8.5782 N   0  0  0  0  0  0  0  0  0  0  0  0
   13.4814   42.9530    9.7387 C   0  0  2  0  0  0  0  0  0  0  0  0
   14.4663   43.9060   10.3437 C   0  0  0  0  0  0  0  0  0  0  0  0
   14.1499   44.5259   11.3756 O   0  0  0  0  0  0  0  0  0  0  0  0
   14.4252   41.8659    9.1259 C   0  0  0  0  0  0  0  0  0  0  0  0
   15.0007   42.6354    7.9375 C   0  0  0  0  0  0  0  0  0  0  0  0
   13.9525   43.7016    7.6116 C   0  0  0  0  0  0  0  0  0  0  0  0
   15.7135   44.0728    9.7172 N   0  0  0  0  0  0  0  0  0  0  0  0
   16.2394   45.2608    9.0414 C   0  0  2  0  0  0  0  0  0  0  0  0
   16.2774   44.9818    7.5717 C   0  0  0  0  0  0  0  0  0  0  0  0
   17.4361   44.8447    7.0489 O   0  0  0  0  0  0  0  0  0  0  0  0
   17.6594   45.3218    9.5950 C   0  0  0  0  0  0  0  0  0  0  0  0
   18.0390   43.9009    9.9473 C   0  0  0  0  0  0  0  0  0  0  0  0
   16.7769   43.1053    9.6318 C   0  0  0  0  0  0  0  0  0  0  0  0
   15.1629   44.8609    6.7162 N   0  0  0  0  0  0  0  0  0  0  0  0
   15.4622   44.6360    5.3017 C   0  0  2  0  0  0  0  0  0  0  0  0
   16.6015   45.4823    4.8565 C   0  0  0  0  0  0  0  0  0  0  0  0
   16.8696   45.4616    3.5977 O   0  0  0  0  0  0  0  0  0  0  0  0
   14.2435   45.0327    4.4614 C   0  0  0  0  0  0  0  0  0  0  0  0
   13.2830   43.9008    4.4656 C   0  0  0  0  0  0  0  0  0  0  0  0
   12.5526   43.6096    5.4397 O   0  0  0  0  0  0  0  0  0  0  0  0
   13.1697   43.0743    3.2903 N   0  0  0  0  0  0  0  0  0  0  0  0
   17.3984   46.2895    5.6830 N   0  0  0  0  0  0  0  0  0  0  0  0
   18.0945   47.4248    5.1256 C   0  0  2  0  0  0  0  0  0  0  0  0
   19.2636   47.8645    5.8873 C   0  0  0  0  0  0  0  0  0  0  0  0
   19.5699   49.1143    5.9740 O   0  0  0  0  0  0  0  0  0  0  0  0
   17.1687   48.6269    4.8783 C   0  0  2  0  0  0  0  0  0  0  0  0
   17.7748   49.6731    4.2495 O   0  0  0  0  0  0  0  0  0  0  0  0
   16.3151   48.9572    6.0572 C   0  0  0  0  0  0  0  0  0  0  0  0
   20.1495   47.0120    6.5843 N   0  0  0  0  0  0  0  0  0  0  0  0
   21.4998   46.7463    6.1345 C   0  0  2  0  0  0  0  0  0  0  0  0
   22.1120   47.8415    5.3959 C   0  0  0  0  0  0  0  0  0  0  0  0
   21.4079   48.5240    4.4226 O   0  0  0  0  0  0  0  0  0  0  0  0
   21.5480   45.4716    5.2972 C   0  0  0  0  0  0  0  0  0  0  0  0
   22.6882   45.5001    4.5080 O   0  0  0  0  0  0  0  0  0  0  0  0
   23.2922   48.1801    5.6324 O   0  0  0  0  0  0  0  0  0  0  0  0
  2  1  1  1
  2  3  1  0
  2  5  1  0
  3  4  2  0
  3  7  1  0
  5  6  1  0
  7  8  1  0
  8  9  1  0
  8 11  1  6
  9 10  2  0
  9 15  1  0
 11 12  1  0
 12 13  1  1
 12 14  1  0
 15 16  1  0
 16 17  1  0
 16 19  1  6
 17 18  2  0
 17 23  1  0
 19 20  1  0
 20 21  1  0
 20 22  2  0
 23 24  1  0
 24 25  1  0
 24 27  1  1
 25 26  2  0
 25 29  1  0
 27 28  1  0
 29 30  1  0
 30 31  1  6
 30 33  1  0
 31 32  1  0
 32 35  1  0
 33 34  2  0
 33 39  1  0
 35 36  2  0
 35 37  1  1
 35 38  1  0
 39 40  1  0
 39 45  1  0
 40 41  1  6
 40 43  1  0
 41 42  2  0
 41 46  1  0
 43 44  1  0
 44 45  1  0
 46 47  1  0
 46 52  1  0
 47 48  1  6
 47 50  1  0
 48 49  2  0
 48 53  1  0
 50 51  1  0
 51 52  1  0
 53 54  1  0
 54 55  1  0
 54 57  1  6
 55 56  2  0
 55 61  1  0
 57 58  1  0
 58 59  2  0
 58 60  1  0
 62 61  1  1
 62 63  1  0
 62 65  1  0
 63 64  2  0
 63 68  1  0
 65 66  1  0
 65 67  1  1
 68 69  1  0
 69 70  1  0
 69 72  1  6
 70 71  1  0
 70 74  2  0
 72 73  1  0
M  CHG  1   1   1
M  END
$$$$
