
     RDKit          3D

 74 75  0  0  0  0  0  0  0  0999 V2000
   12.4734   38.2559   20.1592 N   0  0  0  0  0  4  0  0  0  0  0  0
   11.2688   38.8388   19.5995 C   0  0  2  0  0  0  0  0  0  0  0  0
   11.1611   38.6967   18.1468 C   0  0  0  0  0  0  0  0  0  0  0  0
   12.2170   38.7152   17.4734 O   0  0  0  0  0  0  0  0  0  0  0  0
   11.1245   40.2590   20.0922 C   0  0  0  0  0  0  0  0  0  0  0  0
   10.3292   40.3226   21.2334 O   0  0  0  0  0  0  0  0  0  0  0  0
    9.9362   38.5383   17.4293 N   0  0  0  0  0  0  0  0  0  0  0  0
    9.9558   38.3951   16.0042 C   0  0  2  0  0  0  0  0  0  0  0  0
   10.0017   39.7877   15.4329 C   0  0  0  0  0  0  0  0  0  0  0  0
    8.9390   40.3723   15.0958 O   0  0  0  0  0  0  0  0  0  0  0  0
    8.7596   37.7353   15.3925 C   0  0  0  0  0  0  0  0  0  0  0  0
    8.7434   37.5750   13.9217 C   0  0  1  0  0  0  0  0  0  0  0  0
    9.7573   36.5673   13.4660 C   0  0  0  0  0  0  0  0  0  0  0  0
    7.3580   37.0360   13.5406 C   0  0  0  0  0  0  0  0  0  0  0  0
   11.2152   40.5090   15.2419 N   0  0  0  0  0  0  0  0  0  0  0  0
   11.2230   41.8309   14.6493 C   0  0  2  0  0  0  0  0  0  0  0  0
   10.4554   41.9292   13.3921 C   0  0  0  0  0  0  0  0  0  0  0  0
    9.4582   41.1955   13.2280 O   0  0  0  0  0  0  0  0  0  0  0  0
   12.7175   42.1075   14.3550 C   0  0  0  0  0  0  0  0  0  0  0  0
   13.5512   41.8794   15.5420 C   0  0  0  0  0  0  0  0  0  0  0  0
   13.1732   42.0828   16.8430 O   0  0  0  0  0  0  0  0  0  0  0  0
   14.7298   41.4523   15.3180 O   0  0  0  0  0  0  0  0  0  0  0  0
   10.8424   42.8343   12.4049 N   0  0  0  0  0  0  0  0  0  0  0  0
    9.9032   43.6864   11.6974 C   0  0  2  0  0  0  0  0  0  0  0  0
   10.5343   44.5260   10.6748 C   0  0  0  0  0  0  0  0  0  0  0  0
    9.7626   45.1632    9.8966 O   0  0  0  0  0  0  0  0  0  0  0  0
    9.2610   44.5844   12.7830 C   0  0  0  0  0  0  0  0  0  0  0  0
    8.3750   45.4322   12.1496 O   0  0  0  0  0  0  0  0  0  0  0  0
   11.9202   44.6684   10.5111 N   0  0  0  0  0  0  0  0  0  0  0  0
   12.5575   45.2366    9.2993 C   0  0  1  0  0  0  0  0  0  0  0  0
   13.8812   44.4703    9.2423 C   0  0  0  0  0  0  0  0  0  0  0  0
   13.6243   43.1833    8.8118 O   0  0  0  0  0  0  0  0  0  0  0  0
   11.6712   44.9155    8.1580 C   0  0  0  0  0  0  0  0  0  0  0  0
   10.9048   43.8870    8.2278 O   0  0  0  0  0  0  0  0  0  0  0  0
   14.9948   42.2499    8.6427 P   0  0  1  0  0  5  0  0  0  0  0  0
   14.8222   40.9957    9.5019 O   0  0  0  0  0  0  0  0  0  0  0  0
   15.2743   41.7401    7.0593 O   0  0  0  0  0  0  0  0  0  0  0  0
   16.3838   43.0214    9.2109 O   0  0  0  0  0  0  0  0  0  0  0  0
   11.5961   45.6624    6.9544 N   0  0  0  0  0  0  0  0  0  0  0  0
   10.8227   45.3838    5.7939 C   0  0  2  0  0  0  0  0  0  0  0  0
   11.6774   45.2300    4.5733 C   0  0  0  0  0  0  0  0  0  0  0  0
   12.8710   44.9047    4.7100 O   0  0  0  0  0  0  0  0  0  0  0  0
   10.1312   46.7618    5.5270 C   0  0  0  0  0  0  0  0  0  0  0  0
   11.3068   47.7114    5.7545 C   0  0  0  0  0  0  0  0  0  0  0  0
   12.2530   46.9528    6.6877 C   0  0  0  0  0  0  0  0  0  0  0  0
   11.1008   45.4678    3.3136 N   0  0  0  0  0  0  0  0  0  0  0  0
   11.7216   45.3479    1.9926 C   0  0  2  0  0  0  0  0  0  0  0  0
   11.9042   46.7255    1.4374 C   0  0  0  0  0  0  0  0  0  0  0  0
   12.8483   47.4224    1.9450 O   0  0  0  0  0  0  0  0  0  0  0  0
   10.6363   44.6134    1.2122 C   0  0  0  0  0  0  0  0  0  0  0  0
    9.3229   44.9747    1.8692 C   0  0  0  0  0  0  0  0  0  0  0  0
    9.7404   45.8550    3.0422 C   0  0  0  0  0  0  0  0  0  0  0  0
   11.1351   47.3227    0.4174 N   0  0  0  0  0  0  0  0  0  0  0  0
   11.7101   48.5167   -0.2031 C   0  0  2  0  0  0  0  0  0  0  0  0
   11.2709   49.7493    0.5041 C   0  0  0  0  0  0  0  0  0  0  0  0
   10.0709   50.1480    0.2637 O   0  0  0  0  0  0  0  0  0  0  0  0
   11.2142   48.6192   -1.6495 C   0  0  0  0  0  0  0  0  0  0  0  0
   12.3794   48.4653   -2.5563 C   0  0  0  0  0  0  0  0  0  0  0  0
   12.8676   47.3599   -2.8831 O   0  0  0  0  0  0  0  0  0  0  0  0
   13.0018   49.6448   -3.1027 N   0  0  0  0  0  0  0  0  0  0  0  0
   12.0455   50.5045    1.3984 N   0  0  0  0  0  0  0  0  0  0  0  0
   11.6823   51.8712    1.6888 C   0  0  2  0  0  0  0  0  0  0  0  0
   11.3788   52.6900    0.5150 C   0  0  0  0  0  0  0  0  0  0  0  0
   12.0101   52.5195   -0.5967 O   0  0  0  0  0  0  0  0  0  0  0  0
   12.7278   52.5931    2.5542 C   0  0  2  0  0  0  0  0  0  0  0  0
   13.3525   51.7859    3.4573 O   0  0  0  0  0  0  0  0  0  0  0  0
   12.2563   53.9181    3.0538 C   0  0  0  0  0  0  0  0  0  0  0  0
   10.4047   53.7127    0.4650 N   0  0  0  0  0  0  0  0  0  0  0  0
    9.5746   53.9499   -0.6973 C   0  0  2  0  0  0  0  0  0  0  0  0
    8.2818   54.5493   -0.3983 C   0  0  0  0  0  0  0  0  0  0  0  0
    7.1610   54.2288   -1.1398 O   0  0  0  0  0  0  0  0  0  0  0  0
    9.3726   52.6605   -1.4876 C   0  0  0  0  0  0  0  0  0  0  0  0
    8.8131   52.9748   -2.7172 O   0  0  0  0  0  0  0  0  0  0  0  0
    8.1682   55.3698    0.5384 O   0  0  0  0  0  0  0  0  0  0  0  0
  2  1  1  6
  2  3  1  0
  2  5  1  0
  3  4  2  0
  3  7  1  0
  5  6  1  0
  7  8  1  0
  8  9  1  0
  8 11  1  6
  9 10  2  0
  9 15  1  0
 11 12  1  0
 12 13  1  1
 12 14  1  0
 15 16  1  0
 16 17  1  0
 16 19  1  6
 17 18  2  0
 17 23  1  0
 19 20  1  0
 20 21  1  0
 20 22  2  0
 23 24  1  0
 24 25  1  0
 24 27  1  1
 25 26  2  0
 25 29  1  0
 27 28  1  0
 29 30  1  0
 30 31  1  6
 30 33  1  0
 31 32  1  0
 32 35  1  0
 33 34  2  0
 33 39  1  0
 35 36  2  0
 35 37  1  6
 35 38  1  0
 39 40  1  0
 39 45  1  0
 40 41  1  6
 40 43  1  0
 41 42  2  0
 41 46  1  0
 43 44  1  0
 44 45  1  0
 46 47  1  0
 46 52  1  0
 47 48  1  6
 47 50  1  0
 48 49  2  0
 48 53  1  0
 50 51  1  0
 51 52  1  0
 53 54  1  0
 54 55  1  0
 54 57  1  6
 55 56  2  0
 55 61  1  0
 57 58  1  0
 58 59  2  0
 58 60  1  0
 62 61  1  6
 62 63  1  0
 62 65  1  0
 63 64  2  0
 63 68  1  0
 65 66  1  0
 65 67  1  1
 68 69  1  0
 69 70  1  0
 69 72  1  1
 70 71  1  0
 70 74  2  0
 72 73  1  0
M  CHG  1   1   1
M  END
$$$$
