
     RDKit          3D

 74 75  0  0  0  0  0  0  0  0999 V2000
   14.2766   51.8260   -2.2701 N   0  0  0  0  0  4  0  0  0  0  0  0
   15.2916   50.7919   -2.3395 C   0  0  2  0  0  0  0  0  0  0  0  0
   14.7506   49.4336   -2.4060 C   0  0  0  0  0  0  0  0  0  0  0  0
   14.0974   49.1091   -3.4243 O   0  0  0  0  0  0  0  0  0  0  0  0
   16.2961   51.0016   -1.2315 C   0  0  0  0  0  0  0  0  0  0  0  0
   17.4047   51.7153   -1.6791 O   0  0  0  0  0  0  0  0  0  0  0  0
   14.9086   48.4400   -1.3922 N   0  0  0  0  0  0  0  0  0  0  0  0
   14.8941   47.0515   -1.7436 C   0  0  2  0  0  0  0  0  0  0  0  0
   14.9859   46.2806   -0.4532 C   0  0  0  0  0  0  0  0  0  0  0  0
   15.9996   45.5773   -0.2030 O   0  0  0  0  0  0  0  0  0  0  0  0
   16.0312   46.5753   -2.5926 C   0  0  0  0  0  0  0  0  0  0  0  0
   15.9721   45.1869   -3.1004 C   0  0  1  0  0  0  0  0  0  0  0  0
   17.2871   44.4836   -2.9358 C   0  0  0  0  0  0  0  0  0  0  0  0
   14.9409   44.4365   -2.2469 C   0  0  0  0  0  0  0  0  0  0  0  0
   13.9605   46.2968    0.5356 N   0  0  0  0  0  0  0  0  0  0  0  0
   14.2629   46.5252    1.9338 C   0  0  2  0  0  0  0  0  0  0  0  0
   13.0739   46.5505    2.8084 C   0  0  0  0  0  0  0  0  0  0  0  0
   13.1076   47.2176    3.8636 O   0  0  0  0  0  0  0  0  0  0  0  0
   14.9388   47.9178    1.9547 C   0  0  0  0  0  0  0  0  0  0  0  0
   15.3481   48.2973    3.3128 C   0  0  0  0  0  0  0  0  0  0  0  0
   16.2544   47.6327    4.0963 O   0  0  0  0  0  0  0  0  0  0  0  0
   14.7983   49.3443    3.7855 O   0  0  0  0  0  0  0  0  0  0  0  0
   11.9290   45.8386    2.4535 N   0  0  0  0  0  0  0  0  0  0  0  0
   11.0064   45.2829    3.4276 C   0  0  2  0  0  0  0  0  0  0  0  0
   11.5983   45.1084    4.7574 C   0  0  0  0  0  0  0  0  0  0  0  0
   12.4102   44.1460    4.9041 O   0  0  0  0  0  0  0  0  0  0  0  0
   10.5872   43.9046    2.8606 C   0  0  0  0  0  0  0  0  0  0  0  0
    9.6009   43.3997    3.6836 O   0  0  0  0  0  0  0  0  0  0  0  0
   11.3280   45.9331    5.8595 N   0  0  0  0  0  0  0  0  0  0  0  0
   11.6474   45.5735    7.2617 C   0  0  1  0  0  0  0  0  0  0  0  0
   11.0278   46.7359    8.0412 C   0  0  0  0  0  0  0  0  0  0  0  0
    9.6738   46.7725    7.7707 O   0  0  0  0  0  0  0  0  0  0  0  0
   10.9718   44.2859    7.5387 C   0  0  0  0  0  0  0  0  0  0  0  0
   10.1397   43.8157    6.6804 O   0  0  0  0  0  0  0  0  0  0  0  0
    8.9913   48.2784    7.9823 P   0  0  1  0  0  5  0  0  0  0  0  0
    9.2095   49.0816    6.6984 O   0  0  0  0  0  0  0  0  0  0  0  0
    7.3300   48.2331    8.2709 O   0  0  0  0  0  0  0  0  0  0  0  0
    9.7267   49.1600    9.2190 O   0  0  0  0  0  0  0  0  0  0  0  0
   11.1629   43.5048    8.7072 N   0  0  0  0  0  0  0  0  0  0  0  0
   10.6097   42.2308    9.0131 C   0  0  2  0  0  0  0  0  0  0  0  0
    9.7948   42.2598   10.2697 C   0  0  0  0  0  0  0  0  0  0  0  0
    8.8581   43.0742   10.3625 O   0  0  0  0  0  0  0  0  0  0  0  0
   11.8736   41.4304    9.4714 C   0  0  0  0  0  0  0  0  0  0  0  0
   12.5584   42.4735   10.3537 C   0  0  0  0  0  0  0  0  0  0  0  0
   12.0608   43.8225    9.8300 C   0  0  0  0  0  0  0  0  0  0  0  0
   10.1239   41.3689   11.3060 N   0  0  0  0  0  0  0  0  0  0  0  0
    9.4323   41.1613   12.5800 C   0  0  2  0  0  0  0  0  0  0  0  0
   10.2925   41.7149   13.6722 C   0  0  0  0  0  0  0  0  0  0  0  0
    9.6867   42.3225   14.6201 O   0  0  0  0  0  0  0  0  0  0  0  0
    9.4018   39.6386   12.6647 C   0  0  0  0  0  0  0  0  0  0  0  0
   10.5950   39.1457   11.8770 C   0  0  0  0  0  0  0  0  0  0  0  0
   11.2126   40.4262   11.3254 C   0  0  0  0  0  0  0  0  0  0  0  0
   11.6981   41.6325   13.7502 N   0  0  0  0  0  0  0  0  0  0  0  0
   12.2927   42.0186   15.0303 C   0  0  2  0  0  0  0  0  0  0  0  0
   13.7204   42.4000   14.8617 C   0  0  0  0  0  0  0  0  0  0  0  0
   14.2099   43.1869   15.7551 O   0  0  0  0  0  0  0  0  0  0  0  0
   12.2501   40.8208   15.9853 C   0  0  0  0  0  0  0  0  0  0  0  0
   12.8647   41.2271   17.2741 C   0  0  0  0  0  0  0  0  0  0  0  0
   13.8987   40.7051   17.7488 O   0  0  0  0  0  0  0  0  0  0  0  0
   12.2503   42.2811   18.0412 N   0  0  0  0  0  0  0  0  0  0  0  0
   14.5667   41.9805   13.8236 N   0  0  0  0  0  0  0  0  0  0  0  0
   15.9044   42.5142   13.7249 C   0  0  2  0  0  0  0  0  0  0  0  0
   16.8188   42.0822   14.7821 C   0  0  0  0  0  0  0  0  0  0  0  0
   18.0785   42.3525   14.7240 O   0  0  0  0  0  0  0  0  0  0  0  0
   15.9268   44.0484   13.6306 C   0  0  2  0  0  0  0  0  0  0  0  0
   14.9784   44.5665   12.8004 O   0  0  0  0  0  0  0  0  0  0  0  0
   17.3059   44.6042   13.5015 C   0  0  0  0  0  0  0  0  0  0  0  0
   16.4456   41.3547   15.9348 N   0  0  0  0  0  0  0  0  0  0  0  0
   17.2990   40.3557   16.5430 C   0  0  2  0  0  0  0  0  0  0  0  0
   18.6995   40.4473   16.1554 C   0  0  0  0  0  0  0  0  0  0  0  0
   19.4310   41.5938   16.3987 O   0  0  0  0  0  0  0  0  0  0  0  0
   16.7765   38.9517   16.2533 C   0  0  0  0  0  0  0  0  0  0  0  0
   15.6635   38.7181   17.0472 O   0  0  0  0  0  0  0  0  0  0  0  0
   19.2623   39.4839   15.5911 O   0  0  0  0  0  0  0  0  0  0  0  0
  2  1  1  1
  2  3  1  0
  2  5  1  0
  3  4  2  0
  3  7  1  0
  5  6  1  0
  7  8  1  0
  8  9  1  0
  8 11  1  6
  9 10  2  0
  9 15  1  0
 11 12  1  0
 12 13  1  1
 12 14  1  0
 15 16  1  0
 16 17  1  0
 16 19  1  6
 17 18  2  0
 17 23  1  0
 19 20  1  0
 20 21  1  0
 20 22  2  0
 23 24  1  0
 24 25  1  0
 24 27  1  6
 25 26  2  0
 25 29  1  0
 27 28  1  0
 29 30  1  0
 30 31  1  1
 30 33  1  0
 31 32  1  0
 32 35  1  0
 33 34  2  0
 33 39  1  0
 35 36  2  0
 35 37  1  1
 35 38  1  0
 39 40  1  0
 39 45  1  0
 40 41  1  1
 40 43  1  0
 41 42  2  0
 41 46  1  0
 43 44  1  0
 44 45  1  0
 46 47  1  0
 46 52  1  0
 47 48  1  1
 47 50  1  0
 48 49  2  0
 48 53  1  0
 50 51  1  0
 51 52  1  0
 53 54  1  0
 54 55  1  0
 54 57  1  1
 55 56  2  0
 55 61  1  0
 57 58  1  0
 58 59  2  0
 58 60  1  0
 62 61  1  1
 62 63  1  0
 62 65  1  0
 63 64  2  0
 63 68  1  0
 65 66  1  0
 65 67  1  6
 68 69  1  0
 69 70  1  0
 69 72  1  6
 70 71  1  0
 70 74  2  0
 72 73  1  0
M  CHG  1   1   1
M  END
$$$$
