
     RDKit          3D

 74 75  0  0  0  0  0  0  0  0999 V2000
   20.8152   39.8284    8.6039 N   0  0  0  0  0  4  0  0  0  0  0  0
   19.6489   40.1887    9.3876 C   0  0  2  0  0  0  0  0  0  0  0  0
   19.1881   39.1294   10.2862 C   0  0  0  0  0  0  0  0  0  0  0  0
   19.0756   37.9713    9.8226 O   0  0  0  0  0  0  0  0  0  0  0  0
   18.5771   40.7285    8.4707 C   0  0  0  0  0  0  0  0  0  0  0  0
   17.3108   40.5910    9.0331 O   0  0  0  0  0  0  0  0  0  0  0  0
   18.8524   39.3131   11.6623 N   0  0  0  0  0  0  0  0  0  0  0  0
   18.3116   38.2230   12.4180 C   0  0  2  0  0  0  0  0  0  0  0  0
   16.8454   38.1524   12.0816 C   0  0  0  0  0  0  0  0  0  0  0  0
   16.2400   37.0489   12.1043 O   0  0  0  0  0  0  0  0  0  0  0  0
   18.3894   38.3518   13.9072 C   0  0  0  0  0  0  0  0  0  0  0  0
   19.7325   38.3288   14.5274 C   0  0  1  0  0  0  0  0  0  0  0  0
   20.1306   39.6853   15.0300 C   0  0  0  0  0  0  0  0  0  0  0  0
   19.6539   37.3946   15.7424 C   0  0  0  0  0  0  0  0  0  0  0  0
   16.0746   39.2961   11.7251 N   0  0  0  0  0  0  0  0  0  0  0  0
   14.6730   39.1836   11.3763 C   0  0  2  0  0  0  0  0  0  0  0  0
   14.3331   39.7661   10.0631 C   0  0  0  0  0  0  0  0  0  0  0  0
   14.5553   40.9777    9.8580 O   0  0  0  0  0  0  0  0  0  0  0  0
   13.9395   39.9734   12.4876 C   0  0  0  0  0  0  0  0  0  0  0  0
   14.8543   40.8723   13.2026 C   0  0  0  0  0  0  0  0  0  0  0  0
   15.9466   41.5022   12.6672 O   0  0  0  0  0  0  0  0  0  0  0  0
   14.5880   41.0712   14.4320 O   0  0  0  0  0  0  0  0  0  0  0  0
   13.7736   38.9672    9.0669 N   0  0  0  0  0  0  0  0  0  0  0  0
   12.6831   39.4080    8.2154 C   0  0  2  0  0  0  0  0  0  0  0  0
   12.5799   40.8665    8.1089 C   0  0  0  0  0  0  0  0  0  0  0  0
   12.6251   41.5271    9.1899 O   0  0  0  0  0  0  0  0  0  0  0  0
   11.3966   38.8422    8.8651 C   0  0  0  0  0  0  0  0  0  0  0  0
   10.3380   39.1676    8.0415 O   0  0  0  0  0  0  0  0  0  0  0  0
   12.4410   41.5648    6.9003 N   0  0  0  0  0  0  0  0  0  0  0  0
   12.2615   43.0334    6.8076 C   0  0  1  0  0  0  0  0  0  0  0  0
   12.2386   43.2600    5.2940 C   0  0  0  0  0  0  0  0  0  0  0  0
   13.1572   42.4100    4.7097 O   0  0  0  0  0  0  0  0  0  0  0  0
   10.9626   43.3476    7.4440 C   0  0  0  0  0  0  0  0  0  0  0  0
   10.2414   42.3902    7.9060 O   0  0  0  0  0  0  0  0  0  0  0  0
   14.0416   43.1205    3.4886 P   0  0  1  0  0  5  0  0  0  0  0  0
   13.1899   44.2323    2.8726 O   0  0  0  0  0  0  0  0  0  0  0  0
   15.4806   43.8240    4.0176 O   0  0  0  0  0  0  0  0  0  0  0  0
   14.3973   42.0505    2.2332 O   0  0  0  0  0  0  0  0  0  0  0  0
   10.4241   44.6521    7.5869 N   0  0  0  0  0  0  0  0  0  0  0  0
    9.1598   45.1340    7.1487 C   0  0  2  0  0  0  0  0  0  0  0  0
    9.2962   46.2834    6.1977 C   0  0  0  0  0  0  0  0  0  0  0  0
   10.3790   46.4530    5.6079 O   0  0  0  0  0  0  0  0  0  0  0  0
    8.6213   45.8459    8.4337 C   0  0  0  0  0  0  0  0  0  0  0  0
    9.8800   46.5814    8.8922 C   0  0  0  0  0  0  0  0  0  0  0  0
   11.0432   45.7756    8.3096 C   0  0  0  0  0  0  0  0  0  0  0  0
    8.1951   47.1372    6.0115 N   0  0  0  0  0  0  0  0  0  0  0  0
    7.8741   47.9658    4.8475 C   0  0  2  0  0  0  0  0  0  0  0  0
    8.0844   49.3987    5.2239 C   0  0  0  0  0  0  0  0  0  0  0  0
    7.0305   50.1006    5.4008 O   0  0  0  0  0  0  0  0  0  0  0  0
    6.3841   47.6871    4.6776 C   0  0  0  0  0  0  0  0  0  0  0  0
    5.8601   47.3288    6.0502 C   0  0  0  0  0  0  0  0  0  0  0  0
    7.1067   47.3603    6.9279 C   0  0  0  0  0  0  0  0  0  0  0  0
    9.3272   50.0424    5.3965 N   0  0  0  0  0  0  0  0  0  0  0  0
    9.3724   51.0841    6.4230 C   0  0  2  0  0  0  0  0  0  0  0  0
   10.7424   51.6492    6.5496 C   0  0  0  0  0  0  0  0  0  0  0  0
   10.8501   52.7377    7.2281 O   0  0  0  0  0  0  0  0  0  0  0  0
    9.0052   50.4699    7.7782 C   0  0  0  0  0  0  0  0  0  0  0  0
    9.5288   51.3532    8.8503 C   0  0  0  0  0  0  0  0  0  0  0  0
    9.3647   51.1388   10.0727 O   0  0  0  0  0  0  0  0  0  0  0  0
   10.2709   52.5334    8.4849 N   0  0  0  0  0  0  0  0  0  0  0  0
   11.9115   51.1028    5.9976 N   0  0  0  0  0  0  0  0  0  0  0  0
   13.0975   51.9165    5.8734 C   0  0  2  0  0  0  0  0  0  0  0  0
   13.2989   52.5133    4.5529 C   0  0  0  0  0  0  0  0  0  0  0  0
   14.2596   53.3466    4.3387 O   0  0  0  0  0  0  0  0  0  0  0  0
   14.3755   51.1727    6.2941 C   0  0  2  0  0  0  0  0  0  0  0  0
   14.7413   50.1739    5.4422 O   0  0  0  0  0  0  0  0  0  0  0  0
   14.4125   50.8566    7.7523 C   0  0  0  0  0  0  0  0  0  0  0  0
   12.5032   52.2570    3.4134 N   0  0  0  0  0  0  0  0  0  0  0  0
   12.7511   52.8753    2.1279 C   0  0  2  0  0  0  0  0  0  0  0  0
   11.8306   53.9527    1.7934 C   0  0  0  0  0  0  0  0  0  0  0  0
   11.2622   54.7344    2.7807 O   0  0  0  0  0  0  0  0  0  0  0  0
   12.7439   51.8299    1.0166 C   0  0  0  0  0  0  0  0  0  0  0  0
   11.7986   52.1936    0.0691 O   0  0  0  0  0  0  0  0  0  0  0  0
   11.5382   54.1853    0.6002 O   0  0  0  0  0  0  0  0  0  0  0  0
  2  1  1  6
  2  3  1  0
  2  5  1  0
  3  4  2  0
  3  7  1  0
  5  6  1  0
  7  8  1  0
  8  9  1  0
  8 11  1  1
  9 10  2  0
  9 15  1  0
 11 12  1  0
 12 13  1  1
 12 14  1  0
 15 16  1  0
 16 17  1  0
 16 19  1  1
 17 18  2  0
 17 23  1  0
 19 20  1  0
 20 21  1  0
 20 22  2  0
 23 24  1  0
 24 25  1  0
 24 27  1  1
 25 26  2  0
 25 29  1  0
 27 28  1  0
 29 30  1  0
 30 31  1  6
 30 33  1  0
 31 32  1  0
 32 35  1  0
 33 34  2  0
 33 39  1  0
 35 36  2  0
 35 37  1  1
 35 38  1  0
 39 40  1  0
 39 45  1  0
 40 41  1  6
 40 43  1  0
 41 42  2  0
 41 46  1  0
 43 44  1  0
 44 45  1  0
 46 47  1  0
 46 52  1  0
 47 48  1  1
 47 50  1  0
 48 49  2  0
 48 53  1  0
 50 51  1  0
 51 52  1  0
 53 54  1  0
 54 55  1  0
 54 57  1  1
 55 56  2  0
 55 61  1  0
 57 58  1  0
 58 59  2  0
 58 60  1  0
 62 61  1  6
 62 63  1  0
 62 65  1  0
 63 64  2  0
 63 68  1  0
 65 66  1  0
 65 67  1  1
 68 69  1  0
 69 70  1  0
 69 72  1  6
 70 71  1  0
 70 74  2  0
 72 73  1  0
M  CHG  1   1   1
M  END
$$$$
