
     RDKit          3D

 74 75  0  0  0  0  0  0  0  0999 V2000
   18.9428   40.7429   13.4745 N   0  0  0  0  0  4  0  0  0  0  0  0
   18.3424   39.7855   12.5651 C   0  0  2  0  0  0  0  0  0  0  0  0
   17.0300   39.3014   12.9957 C   0  0  0  0  0  0  0  0  0  0  0  0
   16.9134   38.8817   14.1700 O   0  0  0  0  0  0  0  0  0  0  0  0
   19.3362   38.6885   12.2656 C   0  0  0  0  0  0  0  0  0  0  0  0
   19.0668   38.0788   11.0432 O   0  0  0  0  0  0  0  0  0  0  0  0
   15.8613   39.2679   12.1753 N   0  0  0  0  0  0  0  0  0  0  0  0
   14.6209   38.7989   12.7167 C   0  0  2  0  0  0  0  0  0  0  0  0
   14.0687   39.9188   13.5587 C   0  0  0  0  0  0  0  0  0  0  0  0
   12.8457   40.2120   13.5043 O   0  0  0  0  0  0  0  0  0  0  0  0
   14.7047   37.6061   13.6170 C   0  0  0  0  0  0  0  0  0  0  0  0
   15.2579   36.3569   13.0488 C   0  0  1  0  0  0  0  0  0  0  0  0
   15.3297   35.2679   14.0783 C   0  0  0  0  0  0  0  0  0  0  0  0
   14.2891   35.8898   11.9541 C   0  0  0  0  0  0  0  0  0  0  0  0
   14.8725   40.6950   14.4423 N   0  0  0  0  0  0  0  0  0  0  0  0
   14.3013   41.7532   15.2501 C   0  0  2  0  0  0  0  0  0  0  0  0
   13.6037   42.7939   14.4693 C   0  0  0  0  0  0  0  0  0  0  0  0
   12.7795   43.5362   15.0430 O   0  0  0  0  0  0  0  0  0  0  0  0
   15.5197   42.3860   15.9655 C   0  0  0  0  0  0  0  0  0  0  0  0
   16.2836   41.3824   16.7173 C   0  0  0  0  0  0  0  0  0  0  0  0
   15.9561   40.0595   16.8574 O   0  0  0  0  0  0  0  0  0  0  0  0
   17.3451   41.8021   17.2820 O   0  0  0  0  0  0  0  0  0  0  0  0
   13.8685   42.9431   13.1087 N   0  0  0  0  0  0  0  0  0  0  0  0
   13.3400   44.0367   12.3128 C   0  0  2  0  0  0  0  0  0  0  0  0
   13.0064   43.6493   10.9388 C   0  0  0  0  0  0  0  0  0  0  0  0
   13.9644   43.2752   10.1976 O   0  0  0  0  0  0  0  0  0  0  0  0
   14.4552   45.1105   12.2935 C   0  0  0  0  0  0  0  0  0  0  0  0
   13.9619   46.2327   12.9278 O   0  0  0  0  0  0  0  0  0  0  0  0
   11.7095   43.6629   10.4044 N   0  0  0  0  0  0  0  0  0  0  0  0
   11.1631   44.7694    9.5832 C   0  0  1  0  0  0  0  0  0  0  0  0
   10.6331   45.7306   10.6499 C   0  0  0  0  0  0  0  0  0  0  0  0
    9.9714   46.7651   10.0176 O   0  0  0  0  0  0  0  0  0  0  0  0
   12.2981   45.3408    8.8240 C   0  0  0  0  0  0  0  0  0  0  0  0
   13.2612   45.9026    9.4619 O   0  0  0  0  0  0  0  0  0  0  0  0
    8.8736   46.2541    8.8722 P   0  0  1  0  0  5  0  0  0  0  0  0
    9.3094   44.8716    8.3826 O   0  0  0  0  0  0  0  0  0  0  0  0
    7.3005   46.1057    9.4625 O   0  0  0  0  0  0  0  0  0  0  0  0
    8.8433   47.2477    7.5086 O   0  0  0  0  0  0  0  0  0  0  0  0
   12.4165   45.3286    7.4105 N   0  0  0  0  0  0  0  0  0  0  0  0
   13.4712   45.8508    6.6122 C   0  0  2  0  0  0  0  0  0  0  0  0
   12.9847   46.8906    5.6497 C   0  0  0  0  0  0  0  0  0  0  0  0
   11.8998   47.4584    5.8729 O   0  0  0  0  0  0  0  0  0  0  0  0
   13.7787   44.6509    5.6563 C   0  0  0  0  0  0  0  0  0  0  0  0
   12.3600   44.2121    5.2958 C   0  0  0  0  0  0  0  0  0  0  0  0
   11.4915   44.6823    6.4646 C   0  0  0  0  0  0  0  0  0  0  0  0
   13.7696   47.1824    4.5207 N   0  0  0  0  0  0  0  0  0  0  0  0
   13.8692   48.4445    3.7845 C   0  0  2  0  0  0  0  0  0  0  0  0
   13.2020   48.2631    2.4575 C   0  0  0  0  0  0  0  0  0  0  0  0
   12.8161   49.3283    1.8649 O   0  0  0  0  0  0  0  0  0  0  0  0
   15.3776   48.5674    3.5947 C   0  0  0  0  0  0  0  0  0  0  0  0
   15.9218   47.1564    3.5945 C   0  0  0  0  0  0  0  0  0  0  0  0
   14.6881   46.2977    3.8515 C   0  0  0  0  0  0  0  0  0  0  0  0
   12.9579   47.0359    1.8070 N   0  0  0  0  0  0  0  0  0  0  0  0
   11.8537   47.0280    0.8469 C   0  0  2  0  0  0  0  0  0  0  0  0
   10.9758   48.2140    1.0339 C   0  0  0  0  0  0  0  0  0  0  0  0
   10.6427   48.4917    2.2458 O   0  0  0  0  0  0  0  0  0  0  0  0
   10.9931   45.7818    1.0817 C   0  0  0  0  0  0  0  0  0  0  0  0
    9.8997   45.7715    0.0778 C   0  0  0  0  0  0  0  0  0  0  0  0
    8.7501   46.2173    0.2941 O   0  0  0  0  0  0  0  0  0  0  0  0
   10.1540   45.2188   -1.2287 N   0  0  0  0  0  0  0  0  0  0  0  0
   10.4860   49.0436    0.0132 N   0  0  0  0  0  0  0  0  0  0  0  0
    9.5803   50.1212    0.3337 C   0  0  2  0  0  0  0  0  0  0  0  0
    8.2194   49.7021    0.6694 C   0  0  0  0  0  0  0  0  0  0  0  0
    7.5593   48.9055   -0.1007 O   0  0  0  0  0  0  0  0  0  0  0  0
    9.5238   51.1964   -0.7637 C   0  0  2  0  0  0  0  0  0  0  0  0
   10.6666   51.2983   -1.4991 O   0  0  0  0  0  0  0  0  0  0  0  0
    8.9119   52.4748   -0.2959 C   0  0  0  0  0  0  0  0  0  0  0  0
    7.5052   50.1013    1.8217 N   0  0  0  0  0  0  0  0  0  0  0  0
    6.0969   49.8217    2.0082 C   0  0  2  0  0  0  0  0  0  0  0  0
    5.2097   50.6482    1.2022 C   0  0  0  0  0  0  0  0  0  0  0  0
    5.7071   51.4513    0.1940 O   0  0  0  0  0  0  0  0  0  0  0  0
    5.7140   49.9412    3.4803 C   0  0  0  0  0  0  0  0  0  0  0  0
    4.3650   49.6486    3.6148 O   0  0  0  0  0  0  0  0  0  0  0  0
    3.9775   50.6441    1.4144 O   0  0  0  0  0  0  0  0  0  0  0  0
  2  1  1  1
  2  3  1  0
  2  5  1  0
  3  4  2  0
  3  7  1  0
  5  6  1  0
  7  8  1  0
  8  9  1  0
  8 11  1  1
  9 10  2  0
  9 15  1  0
 11 12  1  0
 12 13  1  1
 12 14  1  0
 15 16  1  0
 16 17  1  0
 16 19  1  6
 17 18  2  0
 17 23  1  0
 19 20  1  0
 20 21  1  0
 20 22  2  0
 23 24  1  0
 24 25  1  0
 24 27  1  6
 25 26  2  0
 25 29  1  0
 27 28  1  0
 29 30  1  0
 30 31  1  1
 30 33  1  0
 31 32  1  0
 32 35  1  0
 33 34  2  0
 33 39  1  0
 35 36  2  0
 35 37  1  1
 35 38  1  0
 39 40  1  0
 39 45  1  0
 40 41  1  6
 40 43  1  0
 41 42  2  0
 41 46  1  0
 43 44  1  0
 44 45  1  0
 46 47  1  0
 46 52  1  0
 47 48  1  6
 47 50  1  0
 48 49  2  0
 48 53  1  0
 50 51  1  0
 51 52  1  0
 53 54  1  0
 54 55  1  0
 54 57  1  1
 55 56  2  0
 55 61  1  0
 57 58  1  0
 58 59  2  0
 58 60  1  0
 62 61  1  6
 62 63  1  0
 62 65  1  0
 63 64  2  0
 63 68  1  0
 65 66  1  0
 65 67  1  1
 68 69  1  0
 69 70  1  0
 69 72  1  1
 70 71  1  0
 70 74  2  0
 72 73  1  0
M  CHG  1   1   1
M  END
$$$$
