
     RDKit          3D

 74 75  0  0  0  0  0  0  0  0999 V2000
   22.1536   41.9093   10.6075 N   0  0  0  0  0  4  0  0  0  0  0  0
   21.3841   40.9637   11.3936 C   0  0  2  0  0  0  0  0  0  0  0  0
   20.0538   40.6853   10.8505 C   0  0  0  0  0  0  0  0  0  0  0  0
   19.9720   40.2998    9.6616 O   0  0  0  0  0  0  0  0  0  0  0  0
   21.3805   41.4007   12.8392 C   0  0  0  0  0  0  0  0  0  0  0  0
   22.6707   41.6572   13.2957 O   0  0  0  0  0  0  0  0  0  0  0  0
   18.8302   40.8205   11.5749 N   0  0  0  0  0  0  0  0  0  0  0  0
   17.7272   39.9547   11.2829 C   0  0  2  0  0  0  0  0  0  0  0  0
   16.6611   40.2579   12.3025 C   0  0  0  0  0  0  0  0  0  0  0  0
   15.7566   39.4171   12.5465 O   0  0  0  0  0  0  0  0  0  0  0  0
   17.9968   38.4862   11.3895 C   0  0  0  0  0  0  0  0  0  0  0  0
   16.8563   37.5644   11.1923 C   0  0  1  0  0  0  0  0  0  0  0  0
   15.6307   38.0423   11.9138 C   0  0  0  0  0  0  0  0  0  0  0  0
   16.5327   37.5595    9.6922 C   0  0  0  0  0  0  0  0  0  0  0  0
   16.6099   41.4804   13.0322 N   0  0  0  0  0  0  0  0  0  0  0  0
   15.4108   42.2928   13.0617 C   0  0  2  0  0  0  0  0  0  0  0  0
   14.2418   41.6603   12.4193 C   0  0  0  0  0  0  0  0  0  0  0  0
   14.3542   41.2064   11.2614 O   0  0  0  0  0  0  0  0  0  0  0  0
   15.7955   43.5684   12.2734 C   0  0  0  0  0  0  0  0  0  0  0  0
   16.9555   44.2414   12.8713 C   0  0  0  0  0  0  0  0  0  0  0  0
   17.6958   43.7832   13.9290 O   0  0  0  0  0  0  0  0  0  0  0  0
   17.2868   45.3510   12.3413 O   0  0  0  0  0  0  0  0  0  0  0  0
   13.0303   41.5713   13.1034 N   0  0  0  0  0  0  0  0  0  0  0  0
   11.7528   41.3970   12.4354 C   0  0  2  0  0  0  0  0  0  0  0  0
   11.2495   42.6241   11.8110 C   0  0  0  0  0  0  0  0  0  0  0  0
   12.0585   43.2719   11.0809 O   0  0  0  0  0  0  0  0  0  0  0  0
   10.7694   40.9343   13.5382 C   0  0  0  0  0  0  0  0  0  0  0  0
    9.8302   40.1181   12.9410 O   0  0  0  0  0  0  0  0  0  0  0  0
    9.9445   43.1147   11.9665 N   0  0  0  0  0  0  0  0  0  0  0  0
    9.4307   44.3311   11.2928 C   0  0  1  0  0  0  0  0  0  0  0  0
   10.2827   45.4339   11.9259 C   0  0  0  0  0  0  0  0  0  0  0  0
    9.7930   45.6943   13.1908 O   0  0  0  0  0  0  0  0  0  0  0  0
    9.7037   44.1683    9.8471 C   0  0  0  0  0  0  0  0  0  0  0  0
   10.7233   43.4820    9.4737 O   0  0  0  0  0  0  0  0  0  0  0  0
   10.4256   47.0734   13.8807 P   0  0  1  0  0  5  0  0  0  0  0  0
   11.8239   46.7414   14.4055 O   0  0  0  0  0  0  0  0  0  0  0  0
   10.5864   48.3577   12.7990 O   0  0  0  0  0  0  0  0  0  0  0  0
    9.5366   47.6029   15.2137 O   0  0  0  0  0  0  0  0  0  0  0  0
    8.9186   44.7263    8.8057 N   0  0  0  0  0  0  0  0  0  0  0  0
    9.1426   44.6579    7.4030 C   0  0  2  0  0  0  0  0  0  0  0  0
    9.2794   46.0178    6.7896 C   0  0  0  0  0  0  0  0  0  0  0  0
    8.4968   46.9195    7.1411 O   0  0  0  0  0  0  0  0  0  0  0  0
    7.7408   44.2087    6.8726 C   0  0  0  0  0  0  0  0  0  0  0  0
    6.8273   45.1048    7.7080 C   0  0  0  0  0  0  0  0  0  0  0  0
    7.6368   45.4331    8.9645 C   0  0  0  0  0  0  0  0  0  0  0  0
   10.2848   46.2248    5.8293 N   0  0  0  0  0  0  0  0  0  0  0  0
   10.8061   47.4944    5.3184 C   0  0  2  0  0  0  0  0  0  0  0  0
   10.3404   47.6539    3.9053 C   0  0  0  0  0  0  0  0  0  0  0  0
    9.7553   46.6445    3.3823 O   0  0  0  0  0  0  0  0  0  0  0  0
   12.3095   47.2380    5.3436 C   0  0  0  0  0  0  0  0  0  0  0  0
   12.4878   45.7438    5.1918 C   0  0  0  0  0  0  0  0  0  0  0  0
   11.0578   45.2156    5.1522 C   0  0  0  0  0  0  0  0  0  0  0  0
   10.4892   48.8036    3.1023 N   0  0  0  0  0  0  0  0  0  0  0  0
    9.4951   48.9784    2.0429 C   0  0  2  0  0  0  0  0  0  0  0  0
   10.1417   49.0031    0.7036 C   0  0  0  0  0  0  0  0  0  0  0  0
    9.5629   49.7188   -0.1962 O   0  0  0  0  0  0  0  0  0  0  0  0
    8.7895   50.3254    2.2337 C   0  0  0  0  0  0  0  0  0  0  0  0
    7.9785   50.6053    1.0223 C   0  0  0  0  0  0  0  0  0  0  0  0
    8.4682   50.8651   -0.1001 O   0  0  0  0  0  0  0  0  0  0  0  0
    6.5408   50.5836    1.1218 N   0  0  0  0  0  0  0  0  0  0  0  0
   11.3135   48.3196    0.3435 N   0  0  0  0  0  0  0  0  0  0  0  0
   12.1856   48.8689   -0.6674 C   0  0  2  0  0  0  0  0  0  0  0  0
   13.4805   48.1996   -0.7929 C   0  0  0  0  0  0  0  0  0  0  0  0
   14.3253   48.5498   -1.7022 O   0  0  0  0  0  0  0  0  0  0  0  0
   12.4100   50.3807   -0.5013 C   0  0  2  0  0  0  0  0  0  0  0  0
   11.3064   51.0621   -0.0831 O   0  0  0  0  0  0  0  0  0  0  0  0
   13.1820   50.9825   -1.6279 C   0  0  0  0  0  0  0  0  0  0  0  0
   13.9345   47.1434    0.0291 N   0  0  0  0  0  0  0  0  0  0  0  0
   14.0376   45.7760   -0.4354 C   0  0  2  0  0  0  0  0  0  0  0  0
   13.4162   45.5341   -1.7297 C   0  0  0  0  0  0  0  0  0  0  0  0
   14.1838   45.3022   -2.8547 O   0  0  0  0  0  0  0  0  0  0  0  0
   13.4644   44.8109    0.5981 C   0  0  0  0  0  0  0  0  0  0  0  0
   14.4762   44.4416    1.4718 O   0  0  0  0  0  0  0  0  0  0  0  0
   12.1708   45.5354   -1.8419 O   0  0  0  0  0  0  0  0  0  0  0  0
  2  1  1  6
  2  3  1  0
  2  5  1  0
  3  4  2  0
  3  7  1  0
  5  6  1  0
  7  8  1  0
  8  9  1  0
  8 11  1  1
  9 10  2  0
  9 15  1  0
 11 12  1  0
 12 13  1  1
 12 14  1  0
 15 16  1  0
 16 17  1  0
 16 19  1  6
 17 18  2  0
 17 23  1  0
 19 20  1  0
 20 21  1  0
 20 22  2  0
 23 24  1  0
 24 25  1  0
 24 27  1  1
 25 26  2  0
 25 29  1  0
 27 28  1  0
 29 30  1  0
 30 31  1  1
 30 33  1  0
 31 32  1  0
 32 35  1  0
 33 34  2  0
 33 39  1  0
 35 36  2  0
 35 37  1  6
 35 38  1  0
 39 40  1  0
 39 45  1  0
 40 41  1  6
 40 43  1  0
 41 42  2  0
 41 46  1  0
 43 44  1  0
 44 45  1  0
 46 47  1  0
 46 52  1  0
 47 48  1  6
 47 50  1  0
 48 49  2  0
 48 53  1  0
 50 51  1  0
 51 52  1  0
 53 54  1  0
 54 55  1  0
 54 57  1  1
 55 56  2  0
 55 61  1  0
 57 58  1  0
 58 59  2  0
 58 60  1  0
 62 61  1  1
 62 63  1  0
 62 65  1  0
 63 64  2  0
 63 68  1  0
 65 66  1  0
 65 67  1  6
 68 69  1  0
 69 70  1  0
 69 72  1  1
 70 71  1  0
 70 74  2  0
 72 73  1  0
M  CHG  1   1   1
M  END
$$$$
