
     RDKit          3D

 74 75  0  0  0  0  0  0  0  0999 V2000
    9.6234   49.8317   -3.7100 N   0  0  0  0  0  4  0  0  0  0  0  0
    9.4032   50.1892   -2.3215 C   0  0  2  0  0  0  0  0  0  0  0  0
    9.5040   49.0603   -1.3955 C   0  0  0  0  0  0  0  0  0  0  0  0
    9.9761   47.9839   -1.8283 O   0  0  0  0  0  0  0  0  0  0  0  0
    8.1157   50.9698   -2.2038 C   0  0  0  0  0  0  0  0  0  0  0  0
    8.0116   51.5940   -0.9635 O   0  0  0  0  0  0  0  0  0  0  0  0
    9.1020   49.0883   -0.0252 N   0  0  0  0  0  0  0  0  0  0  0  0
    9.4294   47.9935    0.8385 C   0  0  2  0  0  0  0  0  0  0  0  0
    8.7831   48.2858    2.1669 C   0  0  0  0  0  0  0  0  0  0  0  0
    8.5432   49.4730    2.5101 O   0  0  0  0  0  0  0  0  0  0  0  0
   10.8851   47.7907    1.1214 C   0  0  0  0  0  0  0  0  0  0  0  0
   11.7637   47.4512   -0.0196 C   0  0  1  0  0  0  0  0  0  0  0  0
   13.2060   47.4031    0.3909 C   0  0  0  0  0  0  0  0  0  0  0  0
   11.3732   46.0429   -0.4880 C   0  0  0  0  0  0  0  0  0  0  0  0
    8.4150   47.2672    3.0922 N   0  0  0  0  0  0  0  0  0  0  0  0
    7.9221   47.5908    4.4155 C   0  0  2  0  0  0  0  0  0  0  0  0
    8.7275   48.6050    5.1241 C   0  0  0  0  0  0  0  0  0  0  0  0
    9.9735   48.5369    5.0748 O   0  0  0  0  0  0  0  0  0  0  0  0
    7.9976   46.2514    5.1881 C   0  0  0  0  0  0  0  0  0  0  0  0
    7.0103   45.2858    4.6893 C   0  0  0  0  0  0  0  0  0  0  0  0
    5.6573   45.4854    4.6097 O   0  0  0  0  0  0  0  0  0  0  0  0
    7.4770   44.1669    4.2992 O   0  0  0  0  0  0  0  0  0  0  0  0
    8.0987   49.6257    5.8357 N   0  0  0  0  0  0  0  0  0  0  0  0
    8.8239   50.7024    6.4866 C   0  0  2  0  0  0  0  0  0  0  0  0
    9.6735   50.2481    7.5915 C   0  0  0  0  0  0  0  0  0  0  0  0
   10.6649   50.9783    7.8930 O   0  0  0  0  0  0  0  0  0  0  0  0
    7.7379   51.6641    7.0278 C   0  0  0  0  0  0  0  0  0  0  0  0
    8.3810   52.6639    7.7291 O   0  0  0  0  0  0  0  0  0  0  0  0
    9.4557   49.0740    8.3275 N   0  0  0  0  0  0  0  0  0  0  0  0
   10.3230   48.6211    9.4411 C   0  0  1  0  0  0  0  0  0  0  0  0
    9.3157   47.9609   10.3857 C   0  0  0  0  0  0  0  0  0  0  0  0
    8.7089   46.9152    9.7179 O   0  0  0  0  0  0  0  0  0  0  0  0
   11.2811   47.6479    8.8700 C   0  0  0  0  0  0  0  0  0  0  0  0
   11.0257   47.1086    7.7324 O   0  0  0  0  0  0  0  0  0  0  0  0
    7.5213   46.1551   10.6066 P   0  0  1  0  0  5  0  0  0  0  0  0
    7.8309   44.6569   10.6265 O   0  0  0  0  0  0  0  0  0  0  0  0
    7.4408   46.6732   12.2099 O   0  0  0  0  0  0  0  0  0  0  0  0
    5.9897   46.3096    9.9155 O   0  0  0  0  0  0  0  0  0  0  0  0
   12.4901   47.2407    9.4902 N   0  0  0  0  0  0  0  0  0  0  0  0
   13.4394   46.2892    9.0253 C   0  0  2  0  0  0  0  0  0  0  0  0
   13.6292   45.1650    9.9971 C   0  0  0  0  0  0  0  0  0  0  0  0
   13.1002   45.2435   11.1210 O   0  0  0  0  0  0  0  0  0  0  0  0
   14.7850   47.0729    9.1779 C   0  0  0  0  0  0  0  0  0  0  0  0
   14.5816   47.7096   10.5522 C   0  0  0  0  0  0  0  0  0  0  0  0
   13.0638   47.7949   10.7278 C   0  0  0  0  0  0  0  0  0  0  0  0
   14.4081   44.0620    9.6063 N   0  0  0  0  0  0  0  0  0  0  0  0
   14.5274   42.7566   10.2593 C   0  0  2  0  0  0  0  0  0  0  0  0
   15.8894   42.6656   10.8723 C   0  0  0  0  0  0  0  0  0  0  0  0
   16.8798   42.6990   10.0643 O   0  0  0  0  0  0  0  0  0  0  0  0
   14.4304   41.8103    9.0670 C   0  0  0  0  0  0  0  0  0  0  0  0
   14.9419   42.5811    7.8706 C   0  0  0  0  0  0  0  0  0  0  0  0
   15.2465   43.9628    8.4395 C   0  0  0  0  0  0  0  0  0  0  0  0
   16.1794   42.5433   12.2469 N   0  0  0  0  0  0  0  0  0  0  0  0
   17.5210   42.9582   12.6582 C   0  0  2  0  0  0  0  0  0  0  0  0
   18.2785   41.8163   13.2366 C   0  0  0  0  0  0  0  0  0  0  0  0
   19.4824   41.6559   12.8102 O   0  0  0  0  0  0  0  0  0  0  0  0
   17.4033   44.0274   13.7498 C   0  0  0  0  0  0  0  0  0  0  0  0
   17.1413   45.3353   13.0984 C   0  0  0  0  0  0  0  0  0  0  0  0
   16.4874   45.4682   12.0392 O   0  0  0  0  0  0  0  0  0  0  0  0
   17.6626   46.5354   13.7027 N   0  0  0  0  0  0  0  0  0  0  0  0
   17.7966   40.9108   14.1946 N   0  0  0  0  0  0  0  0  0  0  0  0
   18.5624   39.7309   14.5194 C   0  0  2  0  0  0  0  0  0  0  0  0
   19.0265   38.9613   13.3649 C   0  0  0  0  0  0  0  0  0  0  0  0
   20.2838   38.7566   13.1634 O   0  0  0  0  0  0  0  0  0  0  0  0
   17.8271   38.7938   15.4912 C   0  0  2  0  0  0  0  0  0  0  0  0
   17.5649   37.5586   14.9785 O   0  0  0  0  0  0  0  0  0  0  0  0
   16.7116   39.4676   16.2188 C   0  0  0  0  0  0  0  0  0  0  0  0
   18.1911   38.3799   12.3844 N   0  0  0  0  0  0  0  0  0  0  0  0
   18.7050   37.6052   11.2745 C   0  0  2  0  0  0  0  0  0  0  0  0
   18.6752   38.2988    9.9947 C   0  0  0  0  0  0  0  0  0  0  0  0
   18.0473   39.5224    9.8636 O   0  0  0  0  0  0  0  0  0  0  0  0
   17.9649   36.2762   11.1562 C   0  0  0  0  0  0  0  0  0  0  0  0
   18.5099   35.5550   10.1044 O   0  0  0  0  0  0  0  0  0  0  0  0
   19.2191   37.7918    8.9894 O   0  0  0  0  0  0  0  0  0  0  0  0
  2  1  1  6
  2  3  1  0
  2  5  1  0
  3  4  2  0
  3  7  1  0
  5  6  1  0
  7  8  1  0
  8  9  1  0
  8 11  1  1
  9 10  2  0
  9 15  1  0
 11 12  1  0
 12 13  1  1
 12 14  1  0
 15 16  1  0
 16 17  1  0
 16 19  1  1
 17 18  2  0
 17 23  1  0
 19 20  1  0
 20 21  1  0
 20 22  2  0
 23 24  1  0
 24 25  1  0
 24 27  1  1
 25 26  2  0
 25 29  1  0
 27 28  1  0
 29 30  1  0
 30 31  1  1
 30 33  1  0
 31 32  1  0
 32 35  1  0
 33 34  2  0
 33 39  1  0
 35 36  2  0
 35 37  1  1
 35 38  1  0
 39 40  1  0
 39 45  1  0
 40 41  1  1
 40 43  1  0
 41 42  2  0
 41 46  1  0
 43 44  1  0
 44 45  1  0
 46 47  1  0
 46 52  1  0
 47 48  1  6
 47 50  1  0
 48 49  2  0
 48 53  1  0
 50 51  1  0
 51 52  1  0
 53 54  1  0
 54 55  1  0
 54 57  1  1
 55 56  2  0
 55 61  1  0
 57 58  1  0
 58 59  2  0
 58 60  1  0
 62 61  1  6
 62 63  1  0
 62 65  1  0
 63 64  2  0
 63 68  1  0
 65 66  1  0
 65 67  1  6
 68 69  1  0
 69 70  1  0
 69 72  1  6
 70 71  1  0
 70 74  2  0
 72 73  1  0
M  CHG  1   1   1
M  END
$$$$
