
     RDKit          3D

 74 75  0  0  0  0  0  0  0  0999 V2000
    8.7893   53.0009    5.6744 N   0  0  0  0  0  4  0  0  0  0  0  0
    7.5959   52.2509    6.0173 C   0  0  2  0  0  0  0  0  0  0  0  0
    7.8406   50.8301    6.2694 C   0  0  0  0  0  0  0  0  0  0  0  0
    8.7796   50.2758    5.6529 O   0  0  0  0  0  0  0  0  0  0  0  0
    6.5237   52.5185    4.9880 C   0  0  0  0  0  0  0  0  0  0  0  0
    5.2524   52.4669    5.5535 O   0  0  0  0  0  0  0  0  0  0  0  0
    7.0863   50.0176    7.1699 N   0  0  0  0  0  0  0  0  0  0  0  0
    7.2972   48.6013    7.2027 C   0  0  2  0  0  0  0  0  0  0  0  0
    7.6422   48.1854    5.7970 C   0  0  0  0  0  0  0  0  0  0  0  0
    8.8260   48.2774    5.3789 O   0  0  0  0  0  0  0  0  0  0  0  0
    6.1192   47.7694    7.6037 C   0  0  0  0  0  0  0  0  0  0  0  0
    6.0960   47.2351    8.9833 C   0  0  1  0  0  0  0  0  0  0  0  0
    6.8776   45.9591    9.0931 C   0  0  0  0  0  0  0  0  0  0  0  0
    6.7829   48.2723    9.8818 C   0  0  0  0  0  0  0  0  0  0  0  0
    6.6785   47.6784    4.8786 N   0  0  0  0  0  0  0  0  0  0  0  0
    7.0736   47.1100    3.6060 C   0  0  2  0  0  0  0  0  0  0  0  0
    8.0367   47.9374    2.8528 C   0  0  0  0  0  0  0  0  0  0  0  0
    7.6660   49.0379    2.3934 O   0  0  0  0  0  0  0  0  0  0  0  0
    5.7520   47.0130    2.8055 C   0  0  0  0  0  0  0  0  0  0  0  0
    5.9769   46.4741    1.4584 C   0  0  0  0  0  0  0  0  0  0  0  0
    7.1730   46.0338    0.9562 O   0  0  0  0  0  0  0  0  0  0  0  0
    4.9517   46.4191    0.7049 O   0  0  0  0  0  0  0  0  0  0  0  0
    9.3437   47.4913    2.6625 N   0  0  0  0  0  0  0  0  0  0  0  0
   10.4054   48.3401    2.1515 C   0  0  2  0  0  0  0  0  0  0  0  0
   11.7112   47.6754    2.1046 C   0  0  0  0  0  0  0  0  0  0  0  0
   12.7109   48.3919    1.7976 O   0  0  0  0  0  0  0  0  0  0  0  0
   10.4713   49.5472    3.1188 C   0  0  0  0  0  0  0  0  0  0  0  0
   11.8030   49.7934    3.3851 O   0  0  0  0  0  0  0  0  0  0  0  0
   11.9185   46.3156    2.3796 N   0  0  0  0  0  0  0  0  0  0  0  0
   13.2267   45.7397    2.7726 C   0  0  1  0  0  0  0  0  0  0  0  0
   14.0328   45.8581    1.4768 C   0  0  0  0  0  0  0  0  0  0  0  0
   13.7150   44.7877    0.6637 O   0  0  0  0  0  0  0  0  0  0  0  0
   13.7660   46.5974    3.8518 C   0  0  0  0  0  0  0  0  0  0  0  0
   13.6999   47.8746    3.7315 O   0  0  0  0  0  0  0  0  0  0  0  0
   14.3695   43.3429    1.1760 P   0  0  1  0  0  5  0  0  0  0  0  0
   14.1492   43.2325    2.6860 O   0  0  0  0  0  0  0  0  0  0  0  0
   13.6592   41.9888    0.4638 O   0  0  0  0  0  0  0  0  0  0  0  0
   16.0380   43.2615    0.9371 O   0  0  0  0  0  0  0  0  0  0  0  0
   14.3742   46.1187    5.0405 N   0  0  0  0  0  0  0  0  0  0  0  0
   14.0596   44.9436    5.7772 C   0  0  2  0  0  0  0  0  0  0  0  0
   13.6664   45.2547    7.1889 C   0  0  0  0  0  0  0  0  0  0  0  0
   13.7176   46.4341    7.5833 O   0  0  0  0  0  0  0  0  0  0  0  0
   15.4707   44.2974    5.9746 C   0  0  0  0  0  0  0  0  0  0  0  0
   16.2928   45.5318    6.3431 C   0  0  0  0  0  0  0  0  0  0  0  0
   15.5380   46.7094    5.7222 C   0  0  0  0  0  0  0  0  0  0  0  0
   13.2606   44.1984    8.0228 N   0  0  0  0  0  0  0  0  0  0  0  0
   12.2718   44.2214    9.1028 C   0  0  2  0  0  0  0  0  0  0  0  0
   13.0005   44.0959   10.4038 C   0  0  0  0  0  0  0  0  0  0  0  0
   13.3377   45.1894   10.9742 O   0  0  0  0  0  0  0  0  0  0  0  0
   11.4861   42.9444    8.8228 C   0  0  0  0  0  0  0  0  0  0  0  0
   12.4389   42.0060    8.1165 C   0  0  0  0  0  0  0  0  0  0  0  0
   13.7127   42.8319    7.9728 C   0  0  0  0  0  0  0  0  0  0  0  0
   13.3504   42.8932   11.0517 N   0  0  0  0  0  0  0  0  0  0  0  0
   14.0377   43.0335   12.3358 C   0  0  2  0  0  0  0  0  0  0  0  0
   14.5187   41.7157   12.8301 C   0  0  0  0  0  0  0  0  0  0  0  0
   14.8834   41.6675   14.0636 O   0  0  0  0  0  0  0  0  0  0  0  0
   13.0528   43.5790   13.3756 C   0  0  0  0  0  0  0  0  0  0  0  0
   12.1384   42.4804   13.7764 C   0  0  0  0  0  0  0  0  0  0  0  0
   11.3274   42.5598   14.7267 O   0  0  0  0  0  0  0  0  0  0  0  0
   12.1708   41.2399   13.0433 N   0  0  0  0  0  0  0  0  0  0  0  0
   14.6080   40.5366   12.0739 N   0  0  0  0  0  0  0  0  0  0  0  0
   15.5233   39.4935   12.4721 C   0  0  2  0  0  0  0  0  0  0  0  0
   16.9346   39.8792   12.4697 C   0  0  0  0  0  0  0  0  0  0  0  0
   17.7867   39.2810   11.7086 O   0  0  0  0  0  0  0  0  0  0  0  0
   15.3483   38.2045   11.6529 C   0  0  2  0  0  0  0  0  0  0  0  0
   14.3845   38.2845   10.6928 O   0  0  0  0  0  0  0  0  0  0  0  0
   15.3534   36.9730   12.4960 C   0  0  0  0  0  0  0  0  0  0  0  0
   17.5003   40.9037   13.2619 N   0  0  0  0  0  0  0  0  0  0  0  0
   18.9288   41.0636   13.4352 C   0  0  2  0  0  0  0  0  0  0  0  0
   19.4358   40.5791   14.7112 C   0  0  0  0  0  0  0  0  0  0  0  0
   19.1661   39.2944   15.1418 O   0  0  0  0  0  0  0  0  0  0  0  0
   19.3355   42.5213   13.2408 C   0  0  0  0  0  0  0  0  0  0  0  0
   20.3676   42.5761   12.3159 O   0  0  0  0  0  0  0  0  0  0  0  0
   20.1250   41.3250   15.4406 O   0  0  0  0  0  0  0  0  0  0  0  0
  2  1  1  6
  2  3  1  0
  2  5  1  0
  3  4  2  0
  3  7  1  0
  5  6  1  0
  7  8  1  0
  8  9  1  0
  8 11  1  6
  9 10  2  0
  9 15  1  0
 11 12  1  0
 12 13  1  6
 12 14  1  0
 15 16  1  0
 16 17  1  0
 16 19  1  6
 17 18  2  0
 17 23  1  0
 19 20  1  0
 20 21  1  0
 20 22  2  0
 23 24  1  0
 24 25  1  0
 24 27  1  1
 25 26  2  0
 25 29  1  0
 27 28  1  0
 29 30  1  0
 30 31  1  6
 30 33  1  0
 31 32  1  0
 32 35  1  0
 33 34  2  0
 33 39  1  0
 35 36  2  0
 35 37  1  6
 35 38  1  0
 39 40  1  0
 39 45  1  0
 40 41  1  1
 40 43  1  0
 41 42  2  0
 41 46  1  0
 43 44  1  0
 44 45  1  0
 46 47  1  0
 46 52  1  0
 47 48  1  1
 47 50  1  0
 48 49  2  0
 48 53  1  0
 50 51  1  0
 51 52  1  0
 53 54  1  0
 54 55  1  0
 54 57  1  1
 55 56  2  0
 55 61  1  0
 57 58  1  0
 58 59  2  0
 58 60  1  0
 62 61  1  6
 62 63  1  0
 62 65  1  0
 63 64  2  0
 63 68  1  0
 65 66  1  0
 65 67  1  1
 68 69  1  0
 69 70  1  0
 69 72  1  1
 70 71  1  0
 70 74  2  0
 72 73  1  0
M  CHG  1   1   1
M  END
$$$$
