
     RDKit          3D

 74 75  0  0  0  0  0  0  0  0999 V2000
    8.0941   52.0551    2.4162 N   0  0  0  0  0  4  0  0  0  0  0  0
    7.3696   51.3519    1.3746 C   0  0  2  0  0  0  0  0  0  0  0  0
    6.8983   50.0247    1.7728 C   0  0  0  0  0  0  0  0  0  0  0  0
    6.7023   49.8105    2.9912 O   0  0  0  0  0  0  0  0  0  0  0  0
    8.1859   51.3604    0.1041 C   0  0  0  0  0  0  0  0  0  0  0  0
    7.3954   51.0889   -1.0095 O   0  0  0  0  0  0  0  0  0  0  0  0
    6.6429   48.9442    0.8744 N   0  0  0  0  0  0  0  0  0  0  0  0
    6.2879   47.6553    1.3888 C   0  0  2  0  0  0  0  0  0  0  0  0
    7.5788   46.9563    1.7249 C   0  0  0  0  0  0  0  0  0  0  0  0
    8.2040   46.3150    0.8403 O   0  0  0  0  0  0  0  0  0  0  0  0
    5.5587   46.7487    0.4471 C   0  0  0  0  0  0  0  0  0  0  0  0
    4.0857   46.8710    0.3816 C   0  0  1  0  0  0  0  0  0  0  0  0
    3.5054   45.9804   -0.6772 C   0  0  0  0  0  0  0  0  0  0  0  0
    3.5319   46.3981    1.7325 C   0  0  0  0  0  0  0  0  0  0  0  0
    8.1556   46.9750    3.0273 N   0  0  0  0  0  0  0  0  0  0  0  0
    9.5911   46.9362    3.2184 C   0  0  2  0  0  0  0  0  0  0  0  0
   10.0109   47.0275    4.6308 C   0  0  0  0  0  0  0  0  0  0  0  0
   10.9416   47.8002    4.9411 O   0  0  0  0  0  0  0  0  0  0  0  0
   10.1109   48.1771    2.4526 C   0  0  0  0  0  0  0  0  0  0  0  0
   10.0967   47.9588    1.0007 C   0  0  0  0  0  0  0  0  0  0  0  0
   10.5123   46.8258    0.3524 O   0  0  0  0  0  0  0  0  0  0  0  0
    9.6521   48.9242    0.2991 O   0  0  0  0  0  0  0  0  0  0  0  0
    9.3701   46.2599    5.6022 N   0  0  0  0  0  0  0  0  0  0  0  0
   10.0257   45.1824    6.3220 C   0  0  2  0  0  0  0  0  0  0  0  0
   11.4720   45.1221    6.0901 C   0  0  0  0  0  0  0  0  0  0  0  0
   11.9252   45.7817    5.1069 O   0  0  0  0  0  0  0  0  0  0  0  0
    9.3628   43.8801    5.8103 C   0  0  0  0  0  0  0  0  0  0  0  0
    9.8188   42.8442    6.6001 O   0  0  0  0  0  0  0  0  0  0  0  0
   12.3717   44.3933    6.8819 N   0  0  0  0  0  0  0  0  0  0  0  0
   13.5664   44.9811    7.5335 C   0  0  1  0  0  0  0  0  0  0  0  0
   13.0831   46.3915    7.8798 C   0  0  0  0  0  0  0  0  0  0  0  0
   14.1565   47.2563    7.7925 O   0  0  0  0  0  0  0  0  0  0  0  0
   13.8409   44.1678    8.7395 C   0  0  0  0  0  0  0  0  0  0  0  0
   13.1544   44.3736    9.8055 O   0  0  0  0  0  0  0  0  0  0  0  0
   14.7359   47.4466    6.2412 P   0  0  1  0  0  5  0  0  0  0  0  0
   15.8528   48.4916    6.2781 O   0  0  0  0  0  0  0  0  0  0  0  0
   15.3885   46.0361    5.5857 O   0  0  0  0  0  0  0  0  0  0  0  0
   13.5693   48.0427    5.1777 O   0  0  0  0  0  0  0  0  0  0  0  0
   14.8301   43.1549    8.8266 N   0  0  0  0  0  0  0  0  0  0  0  0
   14.6433   41.7577    9.0148 C   0  0  2  0  0  0  0  0  0  0  0  0
   15.3300   41.2610   10.2501 C   0  0  0  0  0  0  0  0  0  0  0  0
   16.4637   40.7574   10.1487 O   0  0  0  0  0  0  0  0  0  0  0  0
   15.5436   41.1554    7.8858 C   0  0  0  0  0  0  0  0  0  0  0  0
   16.7849   42.0366    8.0204 C   0  0  0  0  0  0  0  0  0  0  0  0
   16.2806   43.3366    8.6507 C   0  0  0  0  0  0  0  0  0  0  0  0
   14.6632   41.3740   11.4823 N   0  0  0  0  0  0  0  0  0  0  0  0
   14.8001   42.4209   12.4972 C   0  0  2  0  0  0  0  0  0  0  0  0
   15.5039   41.8334   13.6799 C   0  0  0  0  0  0  0  0  0  0  0  0
   15.6503   42.6000   14.6926 O   0  0  0  0  0  0  0  0  0  0  0  0
   13.3415   42.6984   12.8463 C   0  0  0  0  0  0  0  0  0  0  0  0
   12.5873   41.4173   12.5684 C   0  0  0  0  0  0  0  0  0  0  0  0
   13.6579   40.4869   12.0084 C   0  0  0  0  0  0  0  0  0  0  0  0
   16.0198   40.5248   13.7786 N   0  0  0  0  0  0  0  0  0  0  0  0
   16.8581   40.2528   14.9467 C   0  0  2  0  0  0  0  0  0  0  0  0
   18.2638   40.6742   14.7042 C   0  0  0  0  0  0  0  0  0  0  0  0
   19.1785   39.9481   15.2455 O   0  0  0  0  0  0  0  0  0  0  0  0
   16.8738   38.7437   15.2131 C   0  0  0  0  0  0  0  0  0  0  0  0
   17.7902   38.4781   16.3503 C   0  0  0  0  0  0  0  0  0  0  0  0
   17.9954   37.3399   16.8295 O   0  0  0  0  0  0  0  0  0  0  0  0
   18.4941   39.5810   16.9545 N   0  0  0  0  0  0  0  0  0  0  0  0
   18.6707   41.7830   13.9459 N   0  0  0  0  0  0  0  0  0  0  0  0
   20.0695   42.1327   13.8752 C   0  0  2  0  0  0  0  0  0  0  0  0
   20.6166   42.7310   15.0930 C   0  0  0  0  0  0  0  0  0  0  0  0
   20.5440   44.0018   15.3008 O   0  0  0  0  0  0  0  0  0  0  0  0
   20.3965   43.0362   12.6751 C   0  0  2  0  0  0  0  0  0  0  0  0
   19.4479   43.0230   11.6968 O   0  0  0  0  0  0  0  0  0  0  0  0
   21.8174   42.9250   12.2320 C   0  0  0  0  0  0  0  0  0  0  0  0
   21.2560   42.0199   16.1336 N   0  0  0  0  0  0  0  0  0  0  0  0
   21.6604   42.6425   17.3766 C   0  0  2  0  0  0  0  0  0  0  0  0
   20.7449   42.4165   18.4859 C   0  0  0  0  0  0  0  0  0  0  0  0
   19.5131   43.0407   18.5297 O   0  0  0  0  0  0  0  0  0  0  0  0
   21.8746   44.1409   17.1842 C   0  0  0  0  0  0  0  0  0  0  0  0
   23.2323   44.4112   17.2681 O   0  0  0  0  0  0  0  0  0  0  0  0
   21.0641   41.6510   19.4216 O   0  0  0  0  0  0  0  0  0  0  0  0
  2  1  1  1
  2  3  1  0
  2  5  1  0
  3  4  2  0
  3  7  1  0
  5  6  1  0
  7  8  1  0
  8  9  1  0
  8 11  1  6
  9 10  2  0
  9 15  1  0
 11 12  1  0
 12 13  1  6
 12 14  1  0
 15 16  1  0
 16 17  1  0
 16 19  1  6
 17 18  2  0
 17 23  1  0
 19 20  1  0
 20 21  1  0
 20 22  2  0
 23 24  1  0
 24 25  1  0
 24 27  1  6
 25 26  2  0
 25 29  1  0
 27 28  1  0
 29 30  1  0
 30 31  1  1
 30 33  1  0
 31 32  1  0
 32 35  1  0
 33 34  2  0
 33 39  1  0
 35 36  2  0
 35 37  1  6
 35 38  1  0
 39 40  1  0
 39 45  1  0
 40 41  1  1
 40 43  1  0
 41 42  2  0
 41 46  1  0
 43 44  1  0
 44 45  1  0
 46 47  1  0
 46 52  1  0
 47 48  1  1
 47 50  1  0
 48 49  2  0
 48 53  1  0
 50 51  1  0
 51 52  1  0
 53 54  1  0
 54 55  1  0
 54 57  1  6
 55 56  2  0
 55 61  1  0
 57 58  1  0
 58 59  2  0
 58 60  1  0
 62 61  1  1
 62 63  1  0
 62 65  1  0
 63 64  2  0
 63 68  1  0
 65 66  1  0
 65 67  1  6
 68 69  1  0
 69 70  1  0
 69 72  1  6
 70 71  1  0
 70 74  2  0
 72 73  1  0
M  CHG  1   1   1
M  END
$$$$
