
     RDKit          3D

 74 75  0  0  0  0  0  0  0  0999 V2000
   13.0751   41.5227   16.3377 N   0  0  0  0  0  4  0  0  0  0  0  0
   12.3217   40.3240   16.0217 C   0  0  2  0  0  0  0  0  0  0  0  0
   12.1947   40.0646   14.5869 C   0  0  0  0  0  0  0  0  0  0  0  0
   13.1084   40.4697   13.8321 O   0  0  0  0  0  0  0  0  0  0  0  0
   11.0057   40.3503   16.7621 C   0  0  0  0  0  0  0  0  0  0  0  0
   11.1990   40.4051   18.1399 O   0  0  0  0  0  0  0  0  0  0  0  0
   11.1010   39.3810   13.9733 N   0  0  0  0  0  0  0  0  0  0  0  0
   11.0912   39.1752   12.5558 C   0  0  2  0  0  0  0  0  0  0  0  0
   10.5708   40.4473   11.9403 C   0  0  0  0  0  0  0  0  0  0  0  0
   10.6174   40.6163   10.6937 O   0  0  0  0  0  0  0  0  0  0  0  0
   10.2028   38.0792   12.0558 C   0  0  0  0  0  0  0  0  0  0  0  0
   10.2532   37.7619   10.6115 C   0  0  1  0  0  0  0  0  0  0  0  0
    8.9652   38.1106    9.9256 C   0  0  0  0  0  0  0  0  0  0  0  0
   11.3528   38.6366    9.9943 C   0  0  0  0  0  0  0  0  0  0  0  0
   10.0112   41.5089   12.7078 N   0  0  0  0  0  0  0  0  0  0  0  0
    9.7624   42.8121   12.1259 C   0  0  2  0  0  0  0  0  0  0  0  0
   10.8747   43.7676   12.2968 C   0  0  0  0  0  0  0  0  0  0  0  0
   10.6720   44.9821   12.0889 O   0  0  0  0  0  0  0  0  0  0  0  0
    8.5201   43.3375   12.8858 C   0  0  0  0  0  0  0  0  0  0  0  0
    7.4445   43.7177   11.9613 C   0  0  0  0  0  0  0  0  0  0  0  0
    6.7935   42.8798   11.0947 O   0  0  0  0  0  0  0  0  0  0  0  0
    7.1005   44.9436   11.9850 O   0  0  0  0  0  0  0  0  0  0  0  0
   12.1333   43.3135   12.6885 N   0  0  0  0  0  0  0  0  0  0  0  0
   13.2763   44.1927   12.8593 C   0  0  2  0  0  0  0  0  0  0  0  0
   13.3621   45.2417   11.8387 C   0  0  0  0  0  0  0  0  0  0  0  0
   13.1848   46.4361   12.2248 O   0  0  0  0  0  0  0  0  0  0  0  0
   14.5205   43.2759   12.7678 C   0  0  0  0  0  0  0  0  0  0  0  0
   14.6406   42.6175   13.9749 O   0  0  0  0  0  0  0  0  0  0  0  0
   13.6296   45.0071   10.4819 N   0  0  0  0  0  0  0  0  0  0  0  0
   14.9556   45.2111    9.8513 C   0  0  1  0  0  0  0  0  0  0  0  0
   15.3048   43.7999    9.3723 C   0  0  0  0  0  0  0  0  0  0  0  0
   15.7013   43.8713    8.0511 O   0  0  0  0  0  0  0  0  0  0  0  0
   14.7556   46.1539    8.7278 C   0  0  0  0  0  0  0  0  0  0  0  0
   15.7356   46.8903    8.3436 O   0  0  0  0  0  0  0  0  0  0  0  0
   17.3553   43.8353    7.8477 P   0  0  1  0  0  5  0  0  0  0  0  0
   17.7904   42.3707    7.7666 O   0  0  0  0  0  0  0  0  0  0  0  0
   17.8792   44.5945    6.4354 O   0  0  0  0  0  0  0  0  0  0  0  0
   18.1880   44.5014    9.1554 O   0  0  0  0  0  0  0  0  0  0  0  0
   13.5381   46.3262    8.0207 N   0  0  0  0  0  0  0  0  0  0  0  0
   12.3026   45.6508    8.2202 C   0  0  2  0  0  0  0  0  0  0  0  0
   11.8551   44.9239    6.9891 C   0  0  0  0  0  0  0  0  0  0  0  0
   12.7080   44.5683    6.1552 O   0  0  0  0  0  0  0  0  0  0  0  0
   11.2879   46.8405    8.2742 C   0  0  0  0  0  0  0  0  0  0  0  0
   11.7977   47.6936    7.1133 C   0  0  0  0  0  0  0  0  0  0  0  0
   13.2753   47.3225    6.9688 C   0  0  0  0  0  0  0  0  0  0  0  0
   10.4824   44.6764    6.8152 N   0  0  0  0  0  0  0  0  0  0  0  0
    9.8349   43.7807    5.8545 C   0  0  2  0  0  0  0  0  0  0  0  0
    9.1418   44.6211    4.8285 C   0  0  0  0  0  0  0  0  0  0  0  0
    8.6900   44.0074    3.8019 O   0  0  0  0  0  0  0  0  0  0  0  0
    8.8042   43.0830    6.7362 C   0  0  0  0  0  0  0  0  0  0  0  0
    8.4772   44.0492    7.8528 C   0  0  0  0  0  0  0  0  0  0  0  0
    9.3973   45.2344    7.5805 C   0  0  0  0  0  0  0  0  0  0  0  0
    8.9459   46.0164    4.8868 N   0  0  0  0  0  0  0  0  0  0  0  0
    8.3707   46.6333    3.6911 C   0  0  2  0  0  0  0  0  0  0  0  0
    9.3771   46.7208    2.5994 C   0  0  0  0  0  0  0  0  0  0  0  0
   10.5087   46.1481    2.8194 O   0  0  0  0  0  0  0  0  0  0  0  0
    7.9340   48.0639    4.0248 C   0  0  0  0  0  0  0  0  0  0  0  0
    6.9368   48.0053    5.1229 C   0  0  0  0  0  0  0  0  0  0  0  0
    5.9913   47.1859    5.1632 O   0  0  0  0  0  0  0  0  0  0  0  0
    7.0434   48.9384    6.2160 N   0  0  0  0  0  0  0  0  0  0  0  0
    9.1989   47.3678    1.3666 N   0  0  0  0  0  0  0  0  0  0  0  0
   10.3231   47.5481    0.4791 C   0  0  2  0  0  0  0  0  0  0  0  0
   11.2234   48.6430    0.8409 C   0  0  0  0  0  0  0  0  0  0  0  0
   12.0857   48.5095    1.7907 O   0  0  0  0  0  0  0  0  0  0  0  0
    9.9010   47.7032   -0.9910 C   0  0  2  0  0  0  0  0  0  0  0  0
   10.9441   47.7274   -1.8676 O   0  0  0  0  0  0  0  0  0  0  0  0
    8.8377   48.7323   -1.1864 C   0  0  0  0  0  0  0  0  0  0  0  0
   11.2523   49.9125    0.2206 N   0  0  0  0  0  0  0  0  0  0  0  0
   12.3969   50.7962    0.2941 C   0  0  2  0  0  0  0  0  0  0  0  0
   12.1872   52.1008   -0.3174 C   0  0  0  0  0  0  0  0  0  0  0  0
   11.5424   52.2207   -1.5334 O   0  0  0  0  0  0  0  0  0  0  0  0
   13.6288   50.1346   -0.3164 C   0  0  0  0  0  0  0  0  0  0  0  0
   14.6902   51.0250   -0.2527 O   0  0  0  0  0  0  0  0  0  0  0  0
   12.5927   53.1373    0.2524 O   0  0  0  0  0  0  0  0  0  0  0  0
  2  1  1  6
  2  3  1  0
  2  5  1  0
  3  4  2  0
  3  7  1  0
  5  6  1  0
  7  8  1  0
  8  9  1  0
  8 11  1  1
  9 10  2  0
  9 15  1  0
 11 12  1  0
 12 13  1  6
 12 14  1  0
 15 16  1  0
 16 17  1  0
 16 19  1  1
 17 18  2  0
 17 23  1  0
 19 20  1  0
 20 21  1  0
 20 22  2  0
 23 24  1  0
 24 25  1  0
 24 27  1  6
 25 26  2  0
 25 29  1  0
 27 28  1  0
 29 30  1  0
 30 31  1  6
 30 33  1  0
 31 32  1  0
 32 35  1  0
 33 34  2  0
 33 39  1  0
 35 36  2  0
 35 37  1  6
 35 38  1  0
 39 40  1  0
 39 45  1  0
 40 41  1  6
 40 43  1  0
 41 42  2  0
 41 46  1  0
 43 44  1  0
 44 45  1  0
 46 47  1  0
 46 52  1  0
 47 48  1  6
 47 50  1  0
 48 49  2  0
 48 53  1  0
 50 51  1  0
 51 52  1  0
 53 54  1  0
 54 55  1  0
 54 57  1  1
 55 56  2  0
 55 61  1  0
 57 58  1  0
 58 59  2  0
 58 60  1  0
 62 61  1  1
 62 63  1  0
 62 65  1  0
 63 64  2  0
 63 68  1  0
 65 66  1  0
 65 67  1  1
 68 69  1  0
 69 70  1  0
 69 72  1  6
 70 71  1  0
 70 74  2  0
 72 73  1  0
M  CHG  1   1   1
M  END
$$$$
