
     RDKit          3D

 74 75  0  0  0  0  0  0  0  0999 V2000
   20.2846   37.9125   18.0568 N   0  0  0  0  0  4  0  0  0  0  0  0
   20.5619   38.9913   17.1275 C   0  0  2  0  0  0  0  0  0  0  0  0
   19.8342   38.8854   15.8621 C   0  0  0  0  0  0  0  0  0  0  0  0
   19.5978   37.7405   15.4127 O   0  0  0  0  0  0  0  0  0  0  0  0
   22.0560   39.1433   16.9685 C   0  0  0  0  0  0  0  0  0  0  0  0
   22.5986   38.0909   16.2359 O   0  0  0  0  0  0  0  0  0  0  0  0
   19.3689   39.9942   15.0912 N   0  0  0  0  0  0  0  0  0  0  0  0
   18.5593   39.7690   13.9312 C   0  0  2  0  0  0  0  0  0  0  0  0
   18.2331   41.1257   13.3648 C   0  0  0  0  0  0  0  0  0  0  0  0
   18.5466   42.1699   13.9940 O   0  0  0  0  0  0  0  0  0  0  0  0
   17.2456   39.0914   14.1668 C   0  0  0  0  0  0  0  0  0  0  0  0
   16.5748   38.4740   13.0014 C   0  0  1  0  0  0  0  0  0  0  0  0
   17.4209   37.3998   12.3841 C   0  0  0  0  0  0  0  0  0  0  0  0
   15.2927   37.8075   13.5181 C   0  0  0  0  0  0  0  0  0  0  0  0
   17.5672   41.3071   12.1185 N   0  0  0  0  0  0  0  0  0  0  0  0
   17.4086   42.6219   11.5312 C   0  0  2  0  0  0  0  0  0  0  0  0
   16.0387   42.9074   11.0608 C   0  0  0  0  0  0  0  0  0  0  0  0
   15.6426   42.3969    9.9921 O   0  0  0  0  0  0  0  0  0  0  0  0
   18.3712   42.6160   10.3188 C   0  0  0  0  0  0  0  0  0  0  0  0
   19.7740   42.6972   10.7447 C   0  0  0  0  0  0  0  0  0  0  0  0
   20.2221   42.7345   12.0388 O   0  0  0  0  0  0  0  0  0  0  0  0
   20.6366   42.7342    9.8085 O   0  0  0  0  0  0  0  0  0  0  0  0
   15.2011   43.7353   11.8067 N   0  0  0  0  0  0  0  0  0  0  0  0
   13.9098   44.1962   11.3282 C   0  0  2  0  0  0  0  0  0  0  0  0
   14.0016   45.0734   10.1572 C   0  0  0  0  0  0  0  0  0  0  0  0
   14.1163   46.3166   10.3770 O   0  0  0  0  0  0  0  0  0  0  0  0
   13.2837   44.9735   12.5117 C   0  0  0  0  0  0  0  0  0  0  0  0
   12.3206   44.1628   13.0776 O   0  0  0  0  0  0  0  0  0  0  0  0
   13.9754   44.6260    8.8280 N   0  0  0  0  0  0  0  0  0  0  0  0
   13.9570   45.5266    7.6506 C   0  0  1  0  0  0  0  0  0  0  0  0
   13.7689   44.5413    6.4945 C   0  0  0  0  0  0  0  0  0  0  0  0
   12.4204   44.2735    6.3621 O   0  0  0  0  0  0  0  0  0  0  0  0
   12.7943   46.4273    7.8179 C   0  0  0  0  0  0  0  0  0  0  0  0
   12.1821   46.4598    8.9467 O   0  0  0  0  0  0  0  0  0  0  0  0
   12.0739   43.1681    5.1637 P   0  0  1  0  0  5  0  0  0  0  0  0
   10.5525   43.0428    5.0608 O   0  0  0  0  0  0  0  0  0  0  0  0
   12.6453   43.6194    3.6421 O   0  0  0  0  0  0  0  0  0  0  0  0
   12.6502   41.6218    5.5161 O   0  0  0  0  0  0  0  0  0  0  0  0
   12.2764   47.2789    6.8086 N   0  0  0  0  0  0  0  0  0  0  0  0
   11.1372   48.1277    6.8740 C   0  0  2  0  0  0  0  0  0  0  0  0
   10.1211   47.7849    5.8280 C   0  0  0  0  0  0  0  0  0  0  0  0
   10.5110   47.3639    4.7235 O   0  0  0  0  0  0  0  0  0  0  0  0
   11.7088   49.4795    6.3319 C   0  0  0  0  0  0  0  0  0  0  0  0
   12.5290   48.9781    5.1440 C   0  0  0  0  0  0  0  0  0  0  0  0
   12.8756   47.5275    5.4868 C   0  0  0  0  0  0  0  0  0  0  0  0
    8.7593   47.9597    6.1297 N   0  0  0  0  0  0  0  0  0  0  0  0
    7.6210   47.1453    5.6987 C   0  0  2  0  0  0  0  0  0  0  0  0
    6.8274   47.9406    4.7105 C   0  0  0  0  0  0  0  0  0  0  0  0
    6.1486   47.2726    3.8573 O   0  0  0  0  0  0  0  0  0  0  0  0
    6.8381   47.0045    7.0001 C   0  0  0  0  0  0  0  0  0  0  0  0
    7.1669   48.2268    7.8278 C   0  0  0  0  0  0  0  0  0  0  0  0
    8.1815   48.9761    6.9707 C   0  0  0  0  0  0  0  0  0  0  0  0
    6.7623   49.3471    4.6311 N   0  0  0  0  0  0  0  0  0  0  0  0
    6.5176   49.9032    3.2999 C   0  0  2  0  0  0  0  0  0  0  0  0
    7.5120   49.3938    2.3181 C   0  0  0  0  0  0  0  0  0  0  0  0
    8.1174   48.3025    2.6333 O   0  0  0  0  0  0  0  0  0  0  0  0
    6.6714   51.4270    3.3563 C   0  0  0  0  0  0  0  0  0  0  0  0
    8.1197   51.7508    3.3891 C   0  0  0  0  0  0  0  0  0  0  0  0
    8.5725   52.9165    3.4461 O   0  0  0  0  0  0  0  0  0  0  0  0
    9.0786   50.6755    3.3522 N   0  0  0  0  0  0  0  0  0  0  0  0
    7.8417   49.9960    1.0939 N   0  0  0  0  0  0  0  0  0  0  0  0
    8.3572   49.1916    0.0116 C   0  0  2  0  0  0  0  0  0  0  0  0
    8.7137   49.9387   -1.1947 C   0  0  0  0  0  0  0  0  0  0  0  0
    8.7186   49.3703   -2.3524 O   0  0  0  0  0  0  0  0  0  0  0  0
    7.4195   48.0338   -0.3674 C   0  0  2  0  0  0  0  0  0  0  0  0
    6.1835   48.4336   -0.7791 O   0  0  0  0  0  0  0  0  0  0  0  0
    7.4683   46.9023    0.6047 C   0  0  0  0  0  0  0  0  0  0  0  0
    9.0752   51.3045   -1.2299 N   0  0  0  0  0  0  0  0  0  0  0  0
    9.2087   52.0495   -2.4641 C   0  0  2  0  0  0  0  0  0  0  0  0
   10.5305   52.6206   -2.6796 C   0  0  0  0  0  0  0  0  0  0  0  0
   11.2191   52.3955   -3.8560 O   0  0  0  0  0  0  0  0  0  0  0  0
    8.1542   53.1493   -2.5465 C   0  0  0  0  0  0  0  0  0  0  0  0
    8.6822   54.2205   -3.2516 O   0  0  0  0  0  0  0  0  0  0  0  0
   11.0652   53.3254   -1.7959 O   0  0  0  0  0  0  0  0  0  0  0  0
  2  1  1  1
  2  3  1  0
  2  5  1  0
  3  4  2  0
  3  7  1  0
  5  6  1  0
  7  8  1  0
  8  9  1  0
  8 11  1  1
  9 10  2  0
  9 15  1  0
 11 12  1  0
 12 13  1  1
 12 14  1  0
 15 16  1  0
 16 17  1  0
 16 19  1  6
 17 18  2  0
 17 23  1  0
 19 20  1  0
 20 21  1  0
 20 22  2  0
 23 24  1  0
 24 25  1  0
 24 27  1  1
 25 26  2  0
 25 29  1  0
 27 28  1  0
 29 30  1  0
 30 31  1  6
 30 33  1  0
 31 32  1  0
 32 35  1  0
 33 34  2  0
 33 39  1  0
 35 36  2  0
 35 37  1  6
 35 38  1  0
 39 40  1  0
 39 45  1  0
 40 41  1  6
 40 43  1  0
 41 42  2  0
 41 46  1  0
 43 44  1  0
 44 45  1  0
 46 47  1  0
 46 52  1  0
 47 48  1  6
 47 50  1  0
 48 49  2  0
 48 53  1  0
 50 51  1  0
 51 52  1  0
 53 54  1  0
 54 55  1  0
 54 57  1  1
 55 56  2  0
 55 61  1  0
 57 58  1  0
 58 59  2  0
 58 60  1  0
 62 61  1  1
 62 63  1  0
 62 65  1  0
 63 64  2  0
 63 68  1  0
 65 66  1  0
 65 67  1  1
 68 69  1  0
 69 70  1  0
 69 72  1  1
 70 71  1  0
 70 74  2  0
 72 73  1  0
M  CHG  1   1   1
M  END
$$$$
