
     RDKit          3D

 70 70  0  0  0  0  0  0  0  0999 V2000
   -5.5873  -37.0461   -0.4962 N   0  0  0  0  0  4  0  0  0  0  0  0
   -5.2050  -36.7119   -1.8439 C   0  0  2  0  0  0  0  0  0  0  0  0
   -5.1904  -35.2566   -2.1071 C   0  0  0  0  0  0  0  0  0  0  0  0
   -4.3426  -34.8430   -2.9367 O   0  0  0  0  0  0  0  0  0  0  0  0
   -5.9563  -37.4848   -2.8962 C   0  0  0  0  0  0  0  0  0  0  0  0
   -6.0509  -34.3138   -1.4993 N   0  0  0  0  0  0  0  0  0  0  0  0
   -6.5153  -33.0999   -2.1551 C   0  0  2  0  0  0  0  0  0  0  0  0
   -5.6745  -31.9735   -1.7750 C   0  0  0  0  0  0  0  0  0  0  0  0
   -6.0159  -30.7832   -2.1113 O   0  0  0  0  0  0  0  0  0  0  0  0
   -7.9963  -32.8908   -1.9776 C   0  0  0  0  0  0  0  0  0  0  0  0
   -8.4210  -31.5396   -2.5179 C   0  0  0  0  0  0  0  0  0  0  0  0
   -8.4538  -31.5813   -4.0071 C   0  0  0  0  0  0  0  0  0  0  0  0
   -9.7252  -32.1675   -4.5723 C   0  0  0  0  0  0  0  0  0  0  0  0
   -9.4038  -33.5089   -5.0569 N   0  0  0  0  0  4  0  0  0  0  0  0
   -4.4762  -32.1800   -1.0315 N   0  0  0  0  0  0  0  0  0  0  0  0
   -3.9820  -31.2063   -0.1252 C   0  0  2  0  0  0  0  0  0  0  0  0
   -3.8024  -29.8389   -0.7280 C   0  0  0  0  0  0  0  0  0  0  0  0
   -3.2948  -29.6738   -1.8704 O   0  0  0  0  0  0  0  0  0  0  0  0
   -2.8178  -31.6262    0.7247 C   0  0  0  0  0  0  0  0  0  0  0  0
   -1.7587  -32.4294    0.0778 C   0  0  0  0  0  0  0  0  0  0  0  0
   -0.5707  -32.7396    0.8667 C   0  0  0  0  0  0  0  0  0  0  0  0
    0.5566  -32.3585    0.4898 O   0  0  0  0  0  0  0  0  0  0  0  0
   -0.6673  -33.4809    2.0696 N   0  0  0  0  0  0  0  0  0  0  0  0
   -4.2111  -28.6973   -0.0097 N   0  0  0  0  0  0  0  0  0  0  0  0
   -4.1492  -27.3346   -0.4987 C   0  0  2  0  0  0  0  0  0  0  0  0
   -2.9516  -26.7006    0.0401 C   0  0  0  0  0  0  0  0  0  0  0  0
   -2.4661  -27.0721    1.1660 O   0  0  0  0  0  0  0  0  0  0  0  0
   -5.4553  -26.6826   -0.1820 C   0  0  2  0  0  0  0  0  0  0  0  0
   -5.6807  -26.4714    1.1580 O   0  0  0  0  0  0  0  0  0  0  0  0
   -6.5970  -27.4188   -0.8003 C   0  0  0  0  0  0  0  0  0  0  0  0
   -2.2152  -25.6341   -0.5977 N   0  0  0  0  0  0  0  0  0  0  0  0
   -1.4712  -24.7035    0.2374 C   0  0  2  0  0  0  0  0  0  0  0  0
   -2.0847  -23.3452    0.0046 C   0  0  0  0  0  0  0  0  0  0  0  0
   -3.0277  -23.2920   -0.8164 O   0  0  0  0  0  0  0  0  0  0  0  0
   -0.0060  -24.7396    0.0823 C   0  0  0  0  0  0  0  0  0  0  0  0
   -1.6048  -22.2003    0.6777 N   0  0  0  0  0  0  0  0  0  0  0  0
   -2.1050  -20.8659    0.4078 C   0  0  2  0  0  0  0  0  0  0  0  0
   -1.0883  -20.1164   -0.3276 C   0  0  0  0  0  0  0  0  0  0  0  0
   -0.6296  -20.4309   -1.4748 O   0  0  0  0  0  0  0  0  0  0  0  0
   -2.5615  -20.2721    1.6696 C   0  0  0  0  0  0  0  0  0  0  0  0
   -2.9761  -18.8521    1.7009 C   0  0  0  0  0  0  0  0  0  0  0  0
   -3.3439  -18.2821    3.0238 C   0  0  0  0  0  0  0  0  0  0  0  0
   -4.4188  -17.3702    3.1042 N   0  0  0  0  0  0  0  0  0  0  0  0
   -4.2922  -15.9934    2.7859 C   0  0  0  0  0  0  0  0  0  0  0  0
   -4.5006  -15.5492    1.5818 N   0  0  0  0  0  0  0  0  0  0  0  0
   -3.9298  -15.0412    3.7778 N   0  0  0  0  0  0  0  0  0  0  0  0
   -0.5188  -18.9427    0.2266 N   0  0  0  0  0  0  0  0  0  0  0  0
    0.5063  -18.1919   -0.5222 C   0  0  2  0  0  0  0  0  0  0  0  0
    0.6098  -16.8591    0.0955 C   0  0  0  0  0  0  0  0  0  0  0  0
    1.0399  -15.8907   -0.5836 O   0  0  0  0  0  0  0  0  0  0  0  0
    0.1381  -18.2251   -1.9615 C   0  0  0  0  0  0  0  0  0  0  0  0
   -0.1966  -16.9187   -2.5863 C   0  0  0  0  0  0  0  0  0  0  0  0
   -0.1871  -17.0839   -4.1149 C   0  0  0  0  0  0  0  0  0  0  0  0
    1.0985  -16.4420   -4.6098 C   0  0  0  0  0  0  0  0  0  0  0  0
    0.8779  -15.8321   -5.9001 N   0  0  0  0  0  4  0  0  0  0  0  0
    2.0556  -15.1294   -6.3549 C   0  0  0  0  0  0  0  0  0  0  0  0
    1.7910  -13.9610   -7.1955 C   0  0  0  0  0  0  0  0  0  0  0  0
    0.7882  -13.9629   -8.1409 C   0  0  0  0  0  0  0  0  0  0  0  0
    0.5342  -12.8658   -8.9317 C   0  0  0  0  0  0  0  0  0  0  0  0
    1.2866  -11.7286   -8.7933 C   0  0  0  0  0  0  0  0  0  0  0  0
    2.3030  -11.7154   -7.8411 C   0  0  0  0  0  0  0  0  0  0  0  0
    2.5534  -12.8156   -7.0516 C   0  0  0  0  0  0  0  0  0  0  0  0
    0.2341  -16.6235    1.4278 N   0  0  0  0  0  0  0  0  0  0  0  0
    0.5049  -15.3422    2.0361 C   0  0  2  0  0  0  0  0  0  0  0  0
   -0.7384  -14.5506    2.0730 C   0  0  0  0  0  0  0  0  0  0  0  0
   -0.8383  -13.5065    1.3836 O   0  0  0  0  0  0  0  0  0  0  0  0
    1.5420  -14.5717    1.2221 C   0  0  0  0  0  0  0  0  0  0  0  0
    1.6517  -13.2508    1.6974 O   0  0  0  0  0  0  0  0  0  0  0  0
   -1.8112  -14.9268    2.8524 O   0  0  0  0  0  0  0  0  0  0  0  0
   -5.0404  -16.1269    0.8876 H   0  0  0  0  0  0  0  0  0  0  0  0
  1  2  1  0
  2  3  1  0
  2  5  1  6
  3  4  2  0
  3  6  1  0
  6  7  1  0
  7  8  1  0
  7 10  1  1
  8  9  2  0
  8 15  1  0
 10 11  1  0
 11 12  1  0
 12 13  1  0
 13 14  1  0
 15 16  1  0
 16 17  1  0
 16 19  1  6
 17 18  2  0
 17 24  1  0
 19 20  1  0
 20 21  1  0
 21 22  2  0
 21 23  1  0
 25 24  1  1
 25 26  1  0
 25 28  1  0
 26 27  2  0
 26 31  1  0
 28 29  1  0
 28 30  1  1
 31 32  1  0
 32 33  1  0
 32 35  1  6
 33 34  2  0
 33 36  1  0
 36 37  1  0
 37 38  1  0
 37 40  1  1
 38 39  2  0
 38 47  1  0
 40 41  1  0
 41 42  1  0
 42 43  1  0
 43 44  1  0
 44 45  2  0
 44 46  1  0
 47 48  1  0
 48 49  1  0
 48 51  1  6
 49 50  2  0
 49 63  1  0
 51 52  1  0
 52 53  1  0
 53 54  1  0
 54 55  1  0
 55 56  1  0
 56 57  1  0
 57 58  2  0
 57 62  1  0
 58 59  1  0
 59 60  2  0
 60 61  1  0
 61 62  2  0
 63 64  1  0
 64 65  1  0
 64 67  1  6
 65 66  2  0
 65 69  1  0
 67 68  1  0
 45 70  1  0
M  CHG  3   1   1  14   1  55   1
M  END
$$$$
