
     RDKit          3D

 70 70  0  0  0  0  0  0  0  0999 V2000
   -6.8198  -37.2558    0.5556 N   0  0  0  0  0  4  0  0  0  0  0  0
   -5.4714  -37.0289    0.1034 C   0  0  2  0  0  0  0  0  0  0  0  0
   -5.3974  -36.3132   -1.1889 C   0  0  0  0  0  0  0  0  0  0  0  0
   -5.6114  -36.9942   -2.2226 O   0  0  0  0  0  0  0  0  0  0  0  0
   -4.6063  -38.2616    0.1347 C   0  0  0  0  0  0  0  0  0  0  0  0
   -5.1070  -34.9377   -1.3387 N   0  0  0  0  0  0  0  0  0  0  0  0
   -6.0427  -33.8717   -1.0111 C   0  0  2  0  0  0  0  0  0  0  0  0
   -5.3218  -32.6292   -0.7738 C   0  0  0  0  0  0  0  0  0  0  0  0
   -5.9733  -31.5326   -0.6343 O   0  0  0  0  0  0  0  0  0  0  0  0
   -7.0071  -34.2774    0.0724 C   0  0  0  0  0  0  0  0  0  0  0  0
   -8.3622  -33.6315   -0.1392 C   0  0  0  0  0  0  0  0  0  0  0  0
   -8.2329  -32.4922   -1.0909 C   0  0  0  0  0  0  0  0  0  0  0  0
   -9.5492  -31.8450   -1.4489 C   0  0  0  0  0  0  0  0  0  0  0  0
   -9.4741  -30.4490   -1.0214 N   0  0  0  0  0  4  0  0  0  0  0  0
   -3.8988  -32.6192   -0.6935 N   0  0  0  0  0  0  0  0  0  0  0  0
   -3.1862  -31.4962   -0.1985 C   0  0  2  0  0  0  0  0  0  0  0  0
   -3.7780  -30.1693   -0.5912 C   0  0  0  0  0  0  0  0  0  0  0  0
   -4.8414  -30.0847   -1.2636 O   0  0  0  0  0  0  0  0  0  0  0  0
   -1.6939  -31.5389   -0.3574 C   0  0  0  0  0  0  0  0  0  0  0  0
   -1.0422  -32.8646   -0.3025 C   0  0  0  0  0  0  0  0  0  0  0  0
   -1.7181  -33.9178    0.4483 C   0  0  0  0  0  0  0  0  0  0  0  0
   -2.3116  -34.8395   -0.1489 O   0  0  0  0  0  0  0  0  0  0  0  0
   -1.7212  -33.9167    1.8645 N   0  0  0  0  0  0  0  0  0  0  0  0
   -3.1398  -28.9746   -0.2015 N   0  0  0  0  0  0  0  0  0  0  0  0
   -3.6370  -27.6380   -0.4591 C   0  0  2  0  0  0  0  0  0  0  0  0
   -2.6809  -26.6749    0.0744 C   0  0  0  0  0  0  0  0  0  0  0  0
   -1.9136  -26.9887    1.0513 O   0  0  0  0  0  0  0  0  0  0  0  0
   -5.0312  -27.5659    0.0720 C   0  0  2  0  0  0  0  0  0  0  0  0
   -5.1187  -27.4522    1.4396 O   0  0  0  0  0  0  0  0  0  0  0  0
   -5.8615  -28.7055   -0.4176 C   0  0  0  0  0  0  0  0  0  0  0  0
   -2.5005  -25.3255   -0.4086 N   0  0  0  0  0  0  0  0  0  0  0  0
   -1.5403  -24.4655    0.2662 C   0  0  2  0  0  0  0  0  0  0  0  0
   -2.1616  -23.0915    0.3077 C   0  0  0  0  0  0  0  0  0  0  0  0
   -3.1387  -22.8977   -0.4499 O   0  0  0  0  0  0  0  0  0  0  0  0
   -0.1698  -24.4930   -0.2749 C   0  0  0  0  0  0  0  0  0  0  0  0
   -1.6521  -22.0832    1.1550 N   0  0  0  0  0  0  0  0  0  0  0  0
   -2.2496  -20.7650    1.2510 C   0  0  2  0  0  0  0  0  0  0  0  0
   -1.6803  -19.9079    0.2130 C   0  0  0  0  0  0  0  0  0  0  0  0
   -2.3377  -19.0782   -0.4974 O   0  0  0  0  0  0  0  0  0  0  0  0
   -2.1135  -20.2879    2.6319 C   0  0  0  0  0  0  0  0  0  0  0  0
   -2.6213  -21.1194    3.7455 C   0  0  0  0  0  0  0  0  0  0  0  0
   -3.6670  -20.5210    4.6165 C   0  0  0  0  0  0  0  0  0  0  0  0
   -4.1359  -21.2528    5.7291 N   0  0  0  0  0  0  0  0  0  0  0  0
   -5.0315  -20.7144    6.6888 C   0  0  0  0  0  0  0  0  0  0  0  0
   -5.4953  -21.4330    7.6682 N   0  0  0  0  0  0  0  0  0  0  0  0
   -5.4590  -19.3602    6.6151 N   0  0  0  0  0  0  0  0  0  0  0  0
   -0.2953  -19.9611   -0.0840 N   0  0  0  0  0  0  0  0  0  0  0  0
    0.4411  -18.7248   -0.4070 C   0  0  2  0  0  0  0  0  0  0  0  0
   -0.4982  -17.6021   -0.2456 C   0  0  0  0  0  0  0  0  0  0  0  0
   -1.7353  -17.8285   -0.1971 O   0  0  0  0  0  0  0  0  0  0  0  0
    1.0456  -18.8906   -1.7543 C   0  0  0  0  0  0  0  0  0  0  0  0
    0.3876  -19.8726   -2.6554 C   0  0  0  0  0  0  0  0  0  0  0  0
    0.7564  -21.2923   -2.1945 C   0  0  0  0  0  0  0  0  0  0  0  0
    0.1445  -22.2466   -3.2067 C   0  0  0  0  0  0  0  0  0  0  0  0
   -0.0267  -21.5752   -4.4737 N   0  0  0  0  0  4  0  0  0  0  0  0
   -0.5955  -22.4614   -5.4630 C   0  0  0  0  0  0  0  0  0  0  0  0
   -0.5561  -21.9592   -6.8369 C   0  0  0  0  0  0  0  0  0  0  0  0
   -1.0349  -22.7043   -7.8929 C   0  0  0  0  0  0  0  0  0  0  0  0
   -1.0023  -22.2351   -9.1860 C   0  0  0  0  0  0  0  0  0  0  0  0
   -0.4835  -20.9955   -9.4556 C   0  0  0  0  0  0  0  0  0  0  0  0
    0.0037  -20.2337   -8.3961 C   0  0  0  0  0  0  0  0  0  0  0  0
   -0.0314  -20.7072   -7.1034 C   0  0  0  0  0  0  0  0  0  0  0  0
   -0.0595  -16.2729   -0.1339 N   0  0  0  0  0  0  0  0  0  0  0  0
   -1.0227  -15.1978   -0.0979 C   0  0  2  0  0  0  0  0  0  0  0  0
   -0.6421  -14.1726   -1.0869 C   0  0  0  0  0  0  0  0  0  0  0  0
   -0.3363  -13.0163   -0.7061 O   0  0  0  0  0  0  0  0  0  0  0  0
   -1.0481  -14.5479    1.2836 C   0  0  0  0  0  0  0  0  0  0  0  0
    0.2646  -14.3220    1.7405 O   0  0  0  0  0  0  0  0  0  0  0  0
   -0.6106  -14.4481   -2.4370 O   0  0  0  0  0  0  0  0  0  0  0  0
   -5.2749  -22.4602    7.7252 H   0  0  0  0  0  0  0  0  0  0  0  0
  1  2  1  0
  2  3  1  0
  2  5  1  6
  3  4  2  0
  3  6  1  0
  6  7  1  0
  7  8  1  0
  7 10  1  1
  8  9  2  0
  8 15  1  0
 10 11  1  0
 11 12  1  0
 12 13  1  0
 13 14  1  0
 15 16  1  0
 16 17  1  0
 16 19  1  6
 17 18  2  0
 17 24  1  0
 19 20  1  0
 20 21  1  0
 21 22  2  0
 21 23  1  0
 25 24  1  1
 25 26  1  0
 25 28  1  0
 26 27  2  0
 26 31  1  0
 28 29  1  0
 28 30  1  1
 31 32  1  0
 32 33  1  0
 32 35  1  6
 33 34  2  0
 33 36  1  0
 36 37  1  0
 37 38  1  0
 37 40  1  1
 38 39  2  0
 38 47  1  0
 40 41  1  0
 41 42  1  0
 42 43  1  0
 43 44  1  0
 44 45  2  0
 44 46  1  0
 47 48  1  0
 48 49  1  0
 48 51  1  6
 49 50  2  0
 49 63  1  0
 51 52  1  0
 52 53  1  0
 53 54  1  0
 54 55  1  0
 55 56  1  0
 56 57  1  0
 57 58  2  0
 57 62  1  0
 58 59  1  0
 59 60  2  0
 60 61  1  0
 61 62  2  0
 63 64  1  0
 64 65  1  0
 64 67  1  1
 65 66  2  0
 65 69  1  0
 67 68  1  0
 45 70  1  0
M  CHG  3   1   1  14   1  55   1
M  END
$$$$
