
     RDKit          3D

 70 70  0  0  0  0  0  0  0  0999 V2000
  -10.7024  -34.4732   -1.4292 N   0  0  0  0  0  4  0  0  0  0  0  0
   -9.5069  -35.2653   -1.5613 C   0  0  2  0  0  0  0  0  0  0  0  0
   -8.3060  -34.6168   -0.9914 C   0  0  0  0  0  0  0  0  0  0  0  0
   -8.5036  -33.6473   -0.2174 O   0  0  0  0  0  0  0  0  0  0  0  0
   -9.2778  -35.7889   -2.9550 C   0  0  0  0  0  0  0  0  0  0  0  0
   -6.9724  -35.0062   -1.2535 N   0  0  0  0  0  0  0  0  0  0  0  0
   -5.8256  -34.5328   -0.4919 C   0  0  2  0  0  0  0  0  0  0  0  0
   -5.6119  -33.1141   -0.7400 C   0  0  0  0  0  0  0  0  0  0  0  0
   -5.2939  -32.7152   -1.9174 O   0  0  0  0  0  0  0  0  0  0  0  0
   -4.6174  -35.4120   -0.6813 C   0  0  0  0  0  0  0  0  0  0  0  0
   -3.4210  -34.8565    0.0656 C   0  0  0  0  0  0  0  0  0  0  0  0
   -2.5228  -35.9721    0.4769 C   0  0  0  0  0  0  0  0  0  0  0  0
   -2.8734  -37.2997   -0.1510 C   0  0  0  0  0  0  0  0  0  0  0  0
   -1.6995  -37.7467   -0.8989 N   0  0  0  0  0  4  0  0  0  0  0  0
   -5.7541  -32.1633    0.3122 N   0  0  0  0  0  0  0  0  0  0  0  0
   -5.8207  -30.7692    0.0557 C   0  0  2  0  0  0  0  0  0  0  0  0
   -4.6336  -29.9929    0.5589 C   0  0  0  0  0  0  0  0  0  0  0  0
   -4.3433  -29.9362    1.7847 O   0  0  0  0  0  0  0  0  0  0  0  0
   -7.1288  -30.1022    0.3689 C   0  0  0  0  0  0  0  0  0  0  0  0
   -7.4349  -29.8405    1.7913 C   0  0  0  0  0  0  0  0  0  0  0  0
   -6.8638  -30.7473    2.7819 C   0  0  0  0  0  0  0  0  0  0  0  0
   -7.1220  -30.6035    3.9948 O   0  0  0  0  0  0  0  0  0  0  0  0
   -6.0035  -31.8032    2.3937 N   0  0  0  0  0  0  0  0  0  0  0  0
   -3.8083  -29.3050   -0.3533 N   0  0  0  0  0  0  0  0  0  0  0  0
   -2.6364  -28.5291   -0.0006 C   0  0  2  0  0  0  0  0  0  0  0  0
   -2.8989  -27.1265   -0.3012 C   0  0  0  0  0  0  0  0  0  0  0  0
   -3.6281  -26.7984   -1.3022 O   0  0  0  0  0  0  0  0  0  0  0  0
   -1.4616  -29.1536   -0.6797 C   0  0  2  0  0  0  0  0  0  0  0  0
   -1.4766  -29.0614   -2.0517 O   0  0  0  0  0  0  0  0  0  0  0  0
   -1.2702  -30.5693   -0.2473 C   0  0  0  0  0  0  0  0  0  0  0  0
   -2.3908  -26.0040    0.4527 N   0  0  0  0  0  0  0  0  0  0  0  0
   -2.7898  -24.6613    0.0591 C   0  0  2  0  0  0  0  0  0  0  0  0
   -1.5194  -23.8526   -0.0278 C   0  0  0  0  0  0  0  0  0  0  0  0
   -0.6872  -24.0201    0.8918 O   0  0  0  0  0  0  0  0  0  0  0  0
   -3.8448  -24.0431    0.8820 C   0  0  0  0  0  0  0  0  0  0  0  0
   -1.2973  -22.9508   -1.0915 N   0  0  0  0  0  0  0  0  0  0  0  0
   -0.2987  -21.9005   -1.0322 C   0  0  2  0  0  0  0  0  0  0  0  0
   -0.9140  -20.6888   -0.4941 C   0  0  0  0  0  0  0  0  0  0  0  0
   -1.9706  -20.6553    0.2185 O   0  0  0  0  0  0  0  0  0  0  0  0
    0.3303  -21.7764   -2.3521 C   0  0  0  0  0  0  0  0  0  0  0  0
   -0.4030  -22.2263   -3.5559 C   0  0  0  0  0  0  0  0  0  0  0  0
   -0.0974  -21.5326   -4.8349 C   0  0  0  0  0  0  0  0  0  0  0  0
   -0.0506  -22.2834   -6.0297 N   0  0  0  0  0  0  0  0  0  0  0  0
   -1.2109  -22.6592   -6.7544 C   0  0  0  0  0  0  0  0  0  0  0  0
   -1.8878  -23.7277   -6.4528 N   0  0  0  0  0  0  0  0  0  0  0  0
   -1.6804  -21.8770   -7.8451 N   0  0  0  0  0  0  0  0  0  0  0  0
   -0.3466  -19.4167   -0.7563 N   0  0  0  0  0  0  0  0  0  0  0  0
   -0.9655  -18.2001   -0.1977 C   0  0  2  0  0  0  0  0  0  0  0  0
   -1.3511  -17.3453   -1.3332 C   0  0  0  0  0  0  0  0  0  0  0  0
   -0.7290  -17.4413   -2.4231 O   0  0  0  0  0  0  0  0  0  0  0  0
   -0.0142  -17.6097    0.7793 C   0  0  0  0  0  0  0  0  0  0  0  0
    1.3822  -17.4194    0.3068 C   0  0  0  0  0  0  0  0  0  0  0  0
    1.9034  -16.0717    0.8322 C   0  0  0  0  0  0  0  0  0  0  0  0
    3.4150  -16.1045    0.6780 C   0  0  0  0  0  0  0  0  0  0  0  0
    4.0283  -15.2495    1.6671 N   0  0  0  0  0  4  0  0  0  0  0  0
    4.8289  -16.0140    2.5956 C   0  0  0  0  0  0  0  0  0  0  0  0
    5.4126  -15.2387    3.6910 C   0  0  0  0  0  0  0  0  0  0  0  0
    5.5071  -15.7492    4.9677 C   0  0  0  0  0  0  0  0  0  0  0  0
    6.0574  -15.0249    6.0001 C   0  0  0  0  0  0  0  0  0  0  0  0
    6.5310  -13.7583    5.7764 C   0  0  0  0  0  0  0  0  0  0  0  0
    6.4404  -13.2320    4.4900 C   0  0  0  0  0  0  0  0  0  0  0  0
    5.8892  -13.9607    3.4597 C   0  0  0  0  0  0  0  0  0  0  0  0
   -2.4052  -16.4217   -1.2472 N   0  0  0  0  0  0  0  0  0  0  0  0
   -2.6684  -15.5255   -2.3483 C   0  0  2  0  0  0  0  0  0  0  0  0
   -1.7753  -14.3568   -2.2463 C   0  0  0  0  0  0  0  0  0  0  0  0
   -2.2473  -13.2294   -1.9606 O   0  0  0  0  0  0  0  0  0  0  0  0
   -4.1130  -15.0326   -2.3038 C   0  0  0  0  0  0  0  0  0  0  0  0
   -4.2216  -13.9174   -1.4509 O   0  0  0  0  0  0  0  0  0  0  0  0
   -0.4175  -14.4648   -2.4576 O   0  0  0  0  0  0  0  0  0  0  0  0
   -1.5897  -24.3369   -5.6484 H   0  0  0  0  0  0  0  0  0  0  0  0
  1  2  1  0
  2  3  1  0
  2  5  1  6
  3  4  2  0
  3  6  1  0
  6  7  1  0
  7  8  1  0
  7 10  1  6
  8  9  2  0
  8 15  1  0
 10 11  1  0
 11 12  1  0
 12 13  1  0
 13 14  1  0
 15 16  1  0
 16 17  1  0
 16 19  1  1
 17 18  2  0
 17 24  1  0
 19 20  1  0
 20 21  1  0
 21 22  2  0
 21 23  1  0
 25 24  1  6
 25 26  1  0
 25 28  1  0
 26 27  2  0
 26 31  1  0
 28 29  1  0
 28 30  1  6
 31 32  1  0
 32 33  1  0
 32 35  1  1
 33 34  2  0
 33 36  1  0
 36 37  1  0
 37 38  1  0
 37 40  1  6
 38 39  2  0
 38 47  1  0
 40 41  1  0
 41 42  1  0
 42 43  1  0
 43 44  1  0
 44 45  2  0
 44 46  1  0
 47 48  1  0
 48 49  1  0
 48 51  1  1
 49 50  2  0
 49 63  1  0
 51 52  1  0
 52 53  1  0
 53 54  1  0
 54 55  1  0
 55 56  1  0
 56 57  1  0
 57 58  2  0
 57 62  1  0
 58 59  1  0
 59 60  2  0
 60 61  1  0
 61 62  2  0
 63 64  1  0
 64 65  1  0
 64 67  1  1
 65 66  2  0
 65 69  1  0
 67 68  1  0
 45 70  1  0
M  CHG  3   1   1  14   1  55   1
M  END
$$$$
