
     RDKit          3D

 70 70  0  0  0  0  0  0  0  0999 V2000
  -12.0150  -19.1674    7.2747 N   0  0  0  0  0  4  0  0  0  0  0  0
  -11.4579  -19.2976    5.9530 C   0  0  2  0  0  0  0  0  0  0  0  0
  -11.3646  -20.6992    5.4899 C   0  0  0  0  0  0  0  0  0  0  0  0
  -12.4334  -21.3593    5.4742 O   0  0  0  0  0  0  0  0  0  0  0  0
  -10.1733  -18.5353    5.7591 C   0  0  0  0  0  0  0  0  0  0  0  0
  -10.1747  -21.3373    5.0705 N   0  0  0  0  0  0  0  0  0  0  0  0
  -10.1460  -22.5667    4.2914 C   0  0  2  0  0  0  0  0  0  0  0  0
   -8.7703  -22.9998    4.0916 C   0  0  0  0  0  0  0  0  0  0  0  0
   -8.0552  -22.4465    3.1811 O   0  0  0  0  0  0  0  0  0  0  0  0
  -10.9805  -22.4652    3.0416 C   0  0  0  0  0  0  0  0  0  0  0  0
  -11.0034  -23.7856    2.2972 C   0  0  0  0  0  0  0  0  0  0  0  0
  -11.6224  -23.5954    0.9551 C   0  0  0  0  0  0  0  0  0  0  0  0
  -11.7518  -24.8708    0.1575 C   0  0  0  0  0  0  0  0  0  0  0  0
  -13.1774  -25.0856   -0.0846 N   0  0  0  0  0  4  0  0  0  0  0  0
   -8.2093  -24.0318    4.8989 N   0  0  0  0  0  0  0  0  0  0  0  0
   -6.9811  -24.6585    4.5635 C   0  0  2  0  0  0  0  0  0  0  0  0
   -6.9498  -25.2518    3.1807 C   0  0  0  0  0  0  0  0  0  0  0  0
   -7.8028  -24.9470    2.3035 O   0  0  0  0  0  0  0  0  0  0  0  0
   -6.4009  -25.5728    5.6035 C   0  0  0  0  0  0  0  0  0  0  0  0
   -6.9978  -25.5302    6.9552 C   0  0  0  0  0  0  0  0  0  0  0  0
   -6.5185  -24.5009    7.8720 C   0  0  0  0  0  0  0  0  0  0  0  0
   -7.2688  -24.0444    8.7592 O   0  0  0  0  0  0  0  0  0  0  0  0
   -5.1995  -23.9944    7.7746 N   0  0  0  0  0  0  0  0  0  0  0  0
   -5.9421  -26.1753    2.8371 N   0  0  0  0  0  0  0  0  0  0  0  0
   -5.6569  -26.6416    1.4950 C   0  0  2  0  0  0  0  0  0  0  0  0
   -5.2156  -28.0295    1.5684 C   0  0  0  0  0  0  0  0  0  0  0  0
   -5.2964  -28.6833    2.6672 O   0  0  0  0  0  0  0  0  0  0  0  0
   -4.7116  -25.6677    0.8711 C   0  0  2  0  0  0  0  0  0  0  0  0
   -3.4974  -25.5592    1.5075 O   0  0  0  0  0  0  0  0  0  0  0  0
   -5.3424  -24.3253    0.7039 C   0  0  0  0  0  0  0  0  0  0  0  0
   -4.6620  -28.7865    0.4697 N   0  0  0  0  0  0  0  0  0  0  0  0
   -4.6907  -30.2396    0.5392 C   0  0  2  0  0  0  0  0  0  0  0  0
   -4.0701  -30.7351   -0.7433 C   0  0  0  0  0  0  0  0  0  0  0  0
   -3.7434  -29.8625   -1.5788 O   0  0  0  0  0  0  0  0  0  0  0  0
   -6.0026  -30.8370    0.8461 C   0  0  0  0  0  0  0  0  0  0  0  0
   -3.8814  -32.1144   -0.9798 N   0  0  0  0  0  0  0  0  0  0  0  0
   -3.0260  -32.6179   -2.0375 C   0  0  2  0  0  0  0  0  0  0  0  0
   -3.6491  -33.7992   -2.6315 C   0  0  0  0  0  0  0  0  0  0  0  0
   -4.0479  -34.8232   -1.9852 O   0  0  0  0  0  0  0  0  0  0  0  0
   -1.6731  -32.8003   -1.4996 C   0  0  0  0  0  0  0  0  0  0  0  0
   -1.4509  -33.7514   -0.3882 C   0  0  0  0  0  0  0  0  0  0  0  0
   -1.1491  -33.1742    0.9482 C   0  0  0  0  0  0  0  0  0  0  0  0
   -0.7946  -34.0393    2.0062 N   0  0  0  0  0  0  0  0  0  0  0  0
   -0.5007  -33.5809    3.3163 C   0  0  0  0  0  0  0  0  0  0  0  0
    0.6388  -33.8347    3.8887 N   0  0  0  0  0  0  0  0  0  0  0  0
   -1.4474  -32.8220    4.0579 N   0  0  0  0  0  0  0  0  0  0  0  0
   -3.8459  -33.8806   -4.0328 N   0  0  0  0  0  0  0  0  0  0  0  0
   -4.7901  -34.8659   -4.5922 C   0  0  2  0  0  0  0  0  0  0  0  0
   -4.0558  -36.1323   -4.7525 C   0  0  0  0  0  0  0  0  0  0  0  0
   -4.6634  -37.2255   -4.6115 O   0  0  0  0  0  0  0  0  0  0  0  0
   -5.3805  -34.2850   -5.8259 C   0  0  0  0  0  0  0  0  0  0  0  0
   -4.4913  -33.4087   -6.6325 C   0  0  0  0  0  0  0  0  0  0  0  0
   -5.2224  -33.0192   -7.9278 C   0  0  0  0  0  0  0  0  0  0  0  0
   -5.5517  -31.5403   -7.8088 C   0  0  0  0  0  0  0  0  0  0  0  0
   -6.2894  -31.1062   -8.9719 N   0  0  0  0  0  4  0  0  0  0  0  0
   -6.6771  -29.7190   -8.8580 C   0  0  0  0  0  0  0  0  0  0  0  0
   -6.4780  -28.9212  -10.0686 C   0  0  0  0  0  0  0  0  0  0  0  0
   -5.9444  -27.6515  -10.0179 C   0  0  0  0  0  0  0  0  0  0  0  0
   -5.7531  -26.8988  -11.1538 C   0  0  0  0  0  0  0  0  0  0  0  0
   -6.0956  -27.4048  -12.3806 C   0  0  0  0  0  0  0  0  0  0  0  0
   -6.6361  -28.6869  -12.4438 C   0  0  0  0  0  0  0  0  0  0  0  0
   -6.8254  -29.4369  -11.3045 C   0  0  0  0  0  0  0  0  0  0  0  0
   -2.6882  -36.1665   -5.0688 N   0  0  0  0  0  0  0  0  0  0  0  0
   -2.0216  -37.4353   -5.2444 C   0  0  2  0  0  0  0  0  0  0  0  0
   -2.8717  -38.3206   -6.0614 C   0  0  0  0  0  0  0  0  0  0  0  0
   -2.8786  -38.2057   -7.3113 O   0  0  0  0  0  0  0  0  0  0  0  0
   -1.7852  -38.1072   -3.8937 C   0  0  0  0  0  0  0  0  0  0  0  0
   -1.8759  -37.1602   -2.8555 O   0  0  0  0  0  0  0  0  0  0  0  0
   -3.6712  -39.2855   -5.4872 O   0  0  0  0  0  0  0  0  0  0  0  0
    1.5162  -33.9175    3.3138 H   0  0  0  0  0  0  0  0  0  0  0  0
  1  2  1  0
  2  3  1  0
  2  5  1  1
  3  4  2  0
  3  6  1  0
  6  7  1  0
  7  8  1  0
  7 10  1  6
  8  9  2  0
  8 15  1  0
 10 11  1  0
 11 12  1  0
 12 13  1  0
 13 14  1  0
 15 16  1  0
 16 17  1  0
 16 19  1  1
 17 18  2  0
 17 24  1  0
 19 20  1  0
 20 21  1  0
 21 22  2  0
 21 23  1  0
 25 24  1  1
 25 26  1  0
 25 28  1  0
 26 27  2  0
 26 31  1  0
 28 29  1  0
 28 30  1  1
 31 32  1  0
 32 33  1  0
 32 35  1  6
 33 34  2  0
 33 36  1  0
 36 37  1  0
 37 38  1  0
 37 40  1  1
 38 39  2  0
 38 47  1  0
 40 41  1  0
 41 42  1  0
 42 43  1  0
 43 44  1  0
 44 45  2  0
 44 46  1  0
 47 48  1  0
 48 49  1  0
 48 51  1  6
 49 50  2  0
 49 63  1  0
 51 52  1  0
 52 53  1  0
 53 54  1  0
 54 55  1  0
 55 56  1  0
 56 57  1  0
 57 58  2  0
 57 62  1  0
 58 59  1  0
 59 60  2  0
 60 61  1  0
 61 62  2  0
 63 64  1  0
 64 65  1  0
 64 67  1  1
 65 66  2  0
 65 69  1  0
 67 68  1  0
 45 70  1  0
M  CHG  3   1   1  14   1  55   1
M  END
$$$$
