
     RDKit          3D

 70 70  0  0  0  0  0  0  0  0999 V2000
  -11.6685  -34.0310   -4.7203 N   0  0  0  0  0  4  0  0  0  0  0  0
  -11.5912  -33.4796   -3.3921 C   0  0  2  0  0  0  0  0  0  0  0  0
  -10.2382  -33.0034   -3.0312 C   0  0  0  0  0  0  0  0  0  0  0  0
   -9.2767  -33.7484   -3.3454 O   0  0  0  0  0  0  0  0  0  0  0  0
  -12.1976  -34.3626   -2.3331 C   0  0  0  0  0  0  0  0  0  0  0  0
   -9.9566  -31.7872   -2.3675 N   0  0  0  0  0  0  0  0  0  0  0  0
   -8.6100  -31.2974   -2.1104 C   0  0  2  0  0  0  0  0  0  0  0  0
   -7.9166  -32.1966   -1.1990 C   0  0  0  0  0  0  0  0  0  0  0  0
   -8.5301  -33.2190   -0.7248 O   0  0  0  0  0  0  0  0  0  0  0  0
   -8.6013  -29.8436   -1.7167 C   0  0  0  0  0  0  0  0  0  0  0  0
   -7.1911  -29.2875   -1.7302 C   0  0  0  0  0  0  0  0  0  0  0  0
   -7.2167  -27.8435   -1.3633 C   0  0  0  0  0  0  0  0  0  0  0  0
   -5.8649  -27.1740   -1.4291 C   0  0  0  0  0  0  0  0  0  0  0  0
   -5.8446  -26.1402   -0.3957 N   0  0  0  0  0  4  0  0  0  0  0  0
   -6.5618  -31.9530   -0.8294 N   0  0  0  0  0  0  0  0  0  0  0  0
   -5.7535  -32.9628   -0.2456 C   0  0  2  0  0  0  0  0  0  0  0  0
   -4.4105  -32.4781    0.2304 C   0  0  0  0  0  0  0  0  0  0  0  0
   -3.6217  -33.2217    0.8747 O   0  0  0  0  0  0  0  0  0  0  0  0
   -5.6723  -34.2600   -0.9971 C   0  0  0  0  0  0  0  0  0  0  0  0
   -4.3304  -34.8472   -1.1964 C   0  0  0  0  0  0  0  0  0  0  0  0
   -3.2263  -33.9312   -1.4643 C   0  0  0  0  0  0  0  0  0  0  0  0
   -2.0887  -34.3716   -1.7291 O   0  0  0  0  0  0  0  0  0  0  0  0
   -3.4169  -32.5284   -1.4255 N   0  0  0  0  0  0  0  0  0  0  0  0
   -4.0039  -31.1572   -0.0459 N   0  0  0  0  0  0  0  0  0  0  0  0
   -2.6489  -30.6571    0.0711 C   0  0  2  0  0  0  0  0  0  0  0  0
   -2.6270  -29.2658   -0.3651 C   0  0  0  0  0  0  0  0  0  0  0  0
   -3.4493  -28.8468   -1.2537 O   0  0  0  0  0  0  0  0  0  0  0  0
   -1.7544  -31.6046   -0.6591 C   0  0  2  0  0  0  0  0  0  0  0  0
   -1.5752  -31.3129   -1.9910 O   0  0  0  0  0  0  0  0  0  0  0  0
   -2.1972  -33.0190   -0.4829 C   0  0  0  0  0  0  0  0  0  0  0  0
   -1.7209  -28.2534    0.1255 N   0  0  0  0  0  0  0  0  0  0  0  0
   -1.9027  -26.8799   -0.3188 C   0  0  2  0  0  0  0  0  0  0  0  0
   -0.8294  -26.0701    0.3651 C   0  0  0  0  0  0  0  0  0  0  0  0
    0.1571  -26.7055    0.8002 O   0  0  0  0  0  0  0  0  0  0  0  0
   -3.2630  -26.3345   -0.1629 C   0  0  0  0  0  0  0  0  0  0  0  0
   -0.9481  -24.6703    0.5082 N   0  0  0  0  0  0  0  0  0  0  0  0
   -1.9554  -23.8943   -0.1896 C   0  0  2  0  0  0  0  0  0  0  0  0
   -1.3453  -22.6647   -0.6918 C   0  0  0  0  0  0  0  0  0  0  0  0
   -0.3888  -22.6091   -1.5329 O   0  0  0  0  0  0  0  0  0  0  0  0
   -3.1148  -23.7281    0.6943 C   0  0  0  0  0  0  0  0  0  0  0  0
   -2.9931  -22.8932    1.9098 C   0  0  0  0  0  0  0  0  0  0  0  0
   -4.2152  -22.7194    2.7383 C   0  0  0  0  0  0  0  0  0  0  0  0
   -4.2419  -21.7039    3.7189 N   0  0  0  0  0  0  0  0  0  0  0  0
   -4.1617  -21.9685    5.1104 C   0  0  0  0  0  0  0  0  0  0  0  0
   -4.7398  -21.2002    5.9857 N   0  0  0  0  0  0  0  0  0  0  0  0
   -3.4411  -23.0907    5.6038 N   0  0  0  0  0  0  0  0  0  0  0  0
   -1.7999  -21.4001   -0.2410 N   0  0  0  0  0  0  0  0  0  0  0  0
   -1.2029  -20.1634   -0.7790 C   0  0  2  0  0  0  0  0  0  0  0  0
   -1.7926  -19.0356   -0.0381 C   0  0  0  0  0  0  0  0  0  0  0  0
   -3.0215  -18.7898   -0.1545 O   0  0  0  0  0  0  0  0  0  0  0  0
   -1.4022  -20.1617   -2.2515 C   0  0  0  0  0  0  0  0  0  0  0  0
   -0.3592  -20.8477   -3.0584 C   0  0  0  0  0  0  0  0  0  0  0  0
   -0.8400  -20.9372   -4.5161 C   0  0  0  0  0  0  0  0  0  0  0  0
    0.3611  -20.6081   -5.3871 C   0  0  0  0  0  0  0  0  0  0  0  0
   -0.0770  -20.2739   -6.7220 N   0  0  0  0  0  4  0  0  0  0  0  0
    0.9831  -19.6497   -7.4797 C   0  0  0  0  0  0  0  0  0  0  0  0
    0.6660  -18.3215   -8.0060 C   0  0  0  0  0  0  0  0  0  0  0  0
    1.6502  -17.4687   -8.4571 C   0  0  0  0  0  0  0  0  0  0  0  0
    1.3564  -16.2201   -8.9550 C   0  0  0  0  0  0  0  0  0  0  0  0
    0.0561  -15.7908   -9.0135 C   0  0  0  0  0  0  0  0  0  0  0  0
   -0.9469  -16.6442   -8.5601 C   0  0  0  0  0  0  0  0  0  0  0  0
   -0.6483  -17.8932   -8.0628 C   0  0  0  0  0  0  0  0  0  0  0  0
   -1.0276  -18.2192    0.8104 N   0  0  0  0  0  0  0  0  0  0  0  0
   -1.0845  -16.7831    0.6709 C   0  0  2  0  0  0  0  0  0  0  0  0
   -2.4948  -16.3574    0.6097 C   0  0  0  0  0  0  0  0  0  0  0  0
   -3.1950  -16.6475   -0.3908 O   0  0  0  0  0  0  0  0  0  0  0  0
   -0.3925  -16.3427   -0.6171 C   0  0  0  0  0  0  0  0  0  0  0  0
    0.9385  -16.8021   -0.6372 O   0  0  0  0  0  0  0  0  0  0  0  0
   -3.0777  -15.6404    1.6324 O   0  0  0  0  0  0  0  0  0  0  0  0
   -5.7585  -20.9556    5.8885 H   0  0  0  0  0  0  0  0  0  0  0  0
  1  2  1  0
  2  3  1  0
  2  5  1  1
  3  4  2  0
  3  6  1  0
  6  7  1  0
  7  8  1  0
  7 10  1  1
  8  9  2  0
  8 15  1  0
 10 11  1  0
 11 12  1  0
 12 13  1  0
 13 14  1  0
 15 16  1  0
 16 17  1  0
 16 19  1  6
 17 18  2  0
 17 24  1  0
 19 20  1  0
 20 21  1  0
 21 22  2  0
 21 23  1  0
 25 24  1  6
 25 26  1  0
 25 28  1  0
 26 27  2  0
 26 31  1  0
 28 29  1  0
 28 30  1  6
 31 32  1  0
 32 33  1  0
 32 35  1  1
 33 34  2  0
 33 36  1  0
 36 37  1  0
 37 38  1  0
 37 40  1  1
 38 39  2  0
 38 47  1  0
 40 41  1  0
 41 42  1  0
 42 43  1  0
 43 44  1  0
 44 45  2  0
 44 46  1  0
 47 48  1  0
 48 49  1  0
 48 51  1  6
 49 50  2  0
 49 63  1  0
 51 52  1  0
 52 53  1  0
 53 54  1  0
 54 55  1  0
 55 56  1  0
 56 57  1  0
 57 58  2  0
 57 62  1  0
 58 59  1  0
 59 60  2  0
 60 61  1  0
 61 62  2  0
 63 64  1  0
 64 65  1  0
 64 67  1  6
 65 66  2  0
 65 69  1  0
 67 68  1  0
 45 70  1  0
M  CHG  3   1   1  14   1  55   1
M  END
$$$$
