
     RDKit          3D

 70 70  0  0  0  0  0  0  0  0999 V2000
  -11.6204  -34.3195   -4.2294 N   0  0  0  0  0  4  0  0  0  0  0  0
  -11.6184  -33.7500   -2.9066 C   0  0  2  0  0  0  0  0  0  0  0  0
  -10.2624  -33.5869   -2.3389 C   0  0  0  0  0  0  0  0  0  0  0  0
   -9.9363  -34.3820   -1.4227 O   0  0  0  0  0  0  0  0  0  0  0  0
  -12.5691  -34.4266   -1.9541 C   0  0  0  0  0  0  0  0  0  0  0  0
   -9.3229  -32.6134   -2.7495 N   0  0  0  0  0  0  0  0  0  0  0  0
   -7.8960  -32.6976   -2.4738 C   0  0  2  0  0  0  0  0  0  0  0  0
   -7.6507  -32.5189   -1.0497 C   0  0  0  0  0  0  0  0  0  0  0  0
   -7.2502  -31.3815   -0.6112 O   0  0  0  0  0  0  0  0  0  0  0  0
   -7.0892  -31.8110   -3.3857 C   0  0  0  0  0  0  0  0  0  0  0  0
   -7.9096  -31.3777   -4.5845 C   0  0  0  0  0  0  0  0  0  0  0  0
   -7.0039  -30.9035   -5.6686 C   0  0  0  0  0  0  0  0  0  0  0  0
   -5.7633  -30.2059   -5.1645 C   0  0  0  0  0  0  0  0  0  0  0  0
   -4.9386  -29.8958   -6.3311 N   0  0  0  0  0  4  0  0  0  0  0  0
   -7.8526  -33.5951   -0.1373 N   0  0  0  0  0  0  0  0  0  0  0  0
   -7.2458  -33.6111    1.1453 C   0  0  2  0  0  0  0  0  0  0  0  0
   -6.2933  -32.4719    1.3903 C   0  0  0  0  0  0  0  0  0  0  0  0
   -6.5170  -31.5899    2.2633 O   0  0  0  0  0  0  0  0  0  0  0  0
   -6.7021  -34.9340    1.6019 C   0  0  0  0  0  0  0  0  0  0  0  0
   -7.6700  -35.9254    2.1171 C   0  0  0  0  0  0  0  0  0  0  0  0
   -7.1366  -37.1750    2.6499 C   0  0  0  0  0  0  0  0  0  0  0  0
   -7.9064  -38.0653    3.0659 O   0  0  0  0  0  0  0  0  0  0  0  0
   -5.7404  -37.4041    2.7123 N   0  0  0  0  0  0  0  0  0  0  0  0
   -5.1088  -32.3736    0.6328 N   0  0  0  0  0  0  0  0  0  0  0  0
   -3.9850  -31.5137    0.9450 C   0  0  2  0  0  0  0  0  0  0  0  0
   -4.1595  -30.2467    0.2444 C   0  0  0  0  0  0  0  0  0  0  0  0
   -5.1226  -30.0864   -0.5851 O   0  0  0  0  0  0  0  0  0  0  0  0
   -2.7366  -32.2788    0.6495 C   0  0  2  0  0  0  0  0  0  0  0  0
   -2.4975  -32.4915   -0.6880 O   0  0  0  0  0  0  0  0  0  0  0  0
   -2.6930  -33.5652    1.4051 C   0  0  0  0  0  0  0  0  0  0  0  0
   -3.3094  -29.0885    0.3938 N   0  0  0  0  0  0  0  0  0  0  0  0
   -3.7986  -27.7994   -0.0709 C   0  0  2  0  0  0  0  0  0  0  0  0
   -2.7036  -26.8034    0.2196 C   0  0  0  0  0  0  0  0  0  0  0  0
   -1.6838  -27.2469    0.7935 O   0  0  0  0  0  0  0  0  0  0  0  0
   -5.1258  -27.4025    0.4321 C   0  0  0  0  0  0  0  0  0  0  0  0
   -2.8387  -25.4431   -0.1347 N   0  0  0  0  0  0  0  0  0  0  0  0
   -1.8141  -24.4554    0.1455 C   0  0  2  0  0  0  0  0  0  0  0  0
   -2.3151  -23.1326   -0.2230 C   0  0  0  0  0  0  0  0  0  0  0  0
   -2.9845  -22.8671   -1.2750 O   0  0  0  0  0  0  0  0  0  0  0  0
   -0.5660  -24.8783   -0.4998 C   0  0  0  0  0  0  0  0  0  0  0  0
    0.6642  -24.0797   -0.3050 C   0  0  0  0  0  0  0  0  0  0  0  0
    1.7222  -24.2001   -1.3424 C   0  0  0  0  0  0  0  0  0  0  0  0
    3.0054  -24.6528   -0.9659 N   0  0  0  0  0  0  0  0  0  0  0  0
    3.3965  -26.0151   -1.0319 C   0  0  0  0  0  0  0  0  0  0  0  0
    2.5273  -26.9673   -1.2005 N   0  0  0  0  0  0  0  0  0  0  0  0
    4.7623  -26.3931   -0.9150 N   0  0  0  0  0  0  0  0  0  0  0  0
   -2.0633  -22.0114    0.6067 N   0  0  0  0  0  0  0  0  0  0  0  0
   -2.8023  -20.7526    0.3955 C   0  0  2  0  0  0  0  0  0  0  0  0
   -1.9189  -19.8493   -0.3612 C   0  0  0  0  0  0  0  0  0  0  0  0
   -0.7357  -19.6673    0.0273 O   0  0  0  0  0  0  0  0  0  0  0  0
   -3.2651  -20.2654    1.7208 C   0  0  0  0  0  0  0  0  0  0  0  0
   -3.8417  -18.8959    1.7547 C   0  0  0  0  0  0  0  0  0  0  0  0
   -3.5731  -18.2796    3.1375 C   0  0  0  0  0  0  0  0  0  0  0  0
   -3.5996  -16.7717    2.9498 C   0  0  0  0  0  0  0  0  0  0  0  0
   -4.9547  -16.3293    2.7184 N   0  0  0  0  0  4  0  0  0  0  0  0
   -5.0218  -14.8913    2.5949 C   0  0  0  0  0  0  0  0  0  0  0  0
   -6.3578  -14.3190    2.7647 C   0  0  0  0  0  0  0  0  0  0  0  0
   -6.9912  -14.3126    3.9888 C   0  0  0  0  0  0  0  0  0  0  0  0
   -8.2464  -13.7732    4.1537 C   0  0  0  0  0  0  0  0  0  0  0  0
   -8.9044  -13.2219    3.0853 C   0  0  0  0  0  0  0  0  0  0  0  0
   -8.2740  -13.2230    1.8433 C   0  0  0  0  0  0  0  0  0  0  0  0
   -7.0176  -13.7635    1.6829 C   0  0  0  0  0  0  0  0  0  0  0  0
   -2.3500  -19.1817   -1.5188 N   0  0  0  0  0  0  0  0  0  0  0  0
   -1.4359  -18.3271   -2.2392 C   0  0  2  0  0  0  0  0  0  0  0  0
   -1.2751  -17.0596   -1.5033 C   0  0  0  0  0  0  0  0  0  0  0  0
   -0.5653  -17.0203   -0.4688 O   0  0  0  0  0  0  0  0  0  0  0  0
   -1.9822  -18.0104   -3.6295 C   0  0  0  0  0  0  0  0  0  0  0  0
   -0.9735  -17.4435   -4.4323 O   0  0  0  0  0  0  0  0  0  0  0  0
   -1.8887  -15.8986   -1.9219 O   0  0  0  0  0  0  0  0  0  0  0  0
    1.5761  -26.7552   -1.5972 H   0  0  0  0  0  0  0  0  0  0  0  0
  1  2  1  0
  2  3  1  0
  2  5  1  1
  3  4  2  0
  3  6  1  0
  6  7  1  0
  7  8  1  0
  7 10  1  6
  8  9  2  0
  8 15  1  0
 10 11  1  0
 11 12  1  0
 12 13  1  0
 13 14  1  0
 15 16  1  0
 16 17  1  0
 16 19  1  6
 17 18  2  0
 17 24  1  0
 19 20  1  0
 20 21  1  0
 21 22  2  0
 21 23  1  0
 25 24  1  6
 25 26  1  0
 25 28  1  0
 26 27  2  0
 26 31  1  0
 28 29  1  0
 28 30  1  1
 31 32  1  0
 32 33  1  0
 32 35  1  1
 33 34  2  0
 33 36  1  0
 36 37  1  0
 37 38  1  0
 37 40  1  6
 38 39  2  0
 38 47  1  0
 40 41  1  0
 41 42  1  0
 42 43  1  0
 43 44  1  0
 44 45  2  0
 44 46  1  0
 47 48  1  0
 48 49  1  0
 48 51  1  1
 49 50  2  0
 49 63  1  0
 51 52  1  0
 52 53  1  0
 53 54  1  0
 54 55  1  0
 55 56  1  0
 56 57  1  0
 57 58  2  0
 57 62  1  0
 58 59  1  0
 59 60  2  0
 60 61  1  0
 61 62  2  0
 63 64  1  0
 64 65  1  0
 64 67  1  6
 65 66  2  0
 65 69  1  0
 67 68  1  0
 45 70  1  0
M  CHG  3   1   1  14   1  55   1
M  END
$$$$
