
     RDKit          3D

 70 70  0  0  0  0  0  0  0  0999 V2000
   -6.7161  -38.0973    1.2728 N   0  0  0  0  0  4  0  0  0  0  0  0
   -7.7199  -37.2535    0.6775 C   0  0  2  0  0  0  0  0  0  0  0  0
   -7.1565  -36.1336   -0.1073 C   0  0  0  0  0  0  0  0  0  0  0  0
   -5.9038  -36.0496   -0.1492 O   0  0  0  0  0  0  0  0  0  0  0  0
   -8.7866  -36.8071    1.6429 C   0  0  0  0  0  0  0  0  0  0  0  0
   -7.9182  -35.1664   -0.8025 N   0  0  0  0  0  0  0  0  0  0  0  0
   -7.3369  -34.1170   -1.6272 C   0  0  2  0  0  0  0  0  0  0  0  0
   -6.8355  -33.0400   -0.7855 C   0  0  0  0  0  0  0  0  0  0  0  0
   -7.2419  -32.9389    0.4274 O   0  0  0  0  0  0  0  0  0  0  0  0
   -8.2602  -33.6931   -2.7391 C   0  0  0  0  0  0  0  0  0  0  0  0
   -7.6445  -32.5756   -3.5577 C   0  0  0  0  0  0  0  0  0  0  0  0
   -8.2803  -32.5300   -4.9046 C   0  0  0  0  0  0  0  0  0  0  0  0
   -9.0419  -31.2548   -5.1761 C   0  0  0  0  0  0  0  0  0  0  0  0
  -10.2480  -31.6218   -5.9162 N   0  0  0  0  0  4  0  0  0  0  0  0
   -5.8960  -32.0971   -1.2953 N   0  0  0  0  0  0  0  0  0  0  0  0
   -4.5657  -32.0284   -0.8058 C   0  0  2  0  0  0  0  0  0  0  0  0
   -3.7276  -30.9563   -1.4485 C   0  0  0  0  0  0  0  0  0  0  0  0
   -3.3308  -31.0443   -2.6422 O   0  0  0  0  0  0  0  0  0  0  0  0
   -3.8408  -33.3370   -0.6783 C   0  0  0  0  0  0  0  0  0  0  0  0
   -3.0588  -33.5634    0.5556 C   0  0  0  0  0  0  0  0  0  0  0  0
   -1.6158  -33.3563    0.4870 C   0  0  0  0  0  0  0  0  0  0  0  0
   -0.8393  -34.3311    0.4150 O   0  0  0  0  0  0  0  0  0  0  0  0
   -1.0646  -32.0519    0.5057 N   0  0  0  0  0  0  0  0  0  0  0  0
   -3.3685  -29.8107   -0.7102 N   0  0  0  0  0  0  0  0  0  0  0  0
   -3.7634  -28.4530   -1.0276 C   0  0  2  0  0  0  0  0  0  0  0  0
   -3.0153  -27.5388   -0.1726 C   0  0  0  0  0  0  0  0  0  0  0  0
   -2.8187  -27.8135    1.0632 O   0  0  0  0  0  0  0  0  0  0  0  0
   -5.2531  -28.3857   -0.9426 C   0  0  2  0  0  0  0  0  0  0  0  0
   -5.7458  -28.1626    0.3218 O   0  0  0  0  0  0  0  0  0  0  0  0
   -5.8897  -29.5899   -1.5529 C   0  0  0  0  0  0  0  0  0  0  0  0
   -2.4430  -26.2821   -0.5967 N   0  0  0  0  0  0  0  0  0  0  0  0
   -1.8896  -25.3917    0.4121 C   0  0  2  0  0  0  0  0  0  0  0  0
   -2.6201  -24.0803    0.2632 C   0  0  0  0  0  0  0  0  0  0  0  0
   -3.8556  -24.1479    0.0760 O   0  0  0  0  0  0  0  0  0  0  0  0
   -0.4210  -25.2684    0.4166 C   0  0  0  0  0  0  0  0  0  0  0  0
   -1.9325  -22.8485    0.3249 N   0  0  0  0  0  0  0  0  0  0  0  0
   -2.5555  -21.6265    0.7969 C   0  0  2  0  0  0  0  0  0  0  0  0
   -1.5951  -20.5301    0.6879 C   0  0  0  0  0  0  0  0  0  0  0  0
   -0.4956  -20.4497    1.3281 O   0  0  0  0  0  0  0  0  0  0  0  0
   -3.1123  -21.8697    2.1325 C   0  0  0  0  0  0  0  0  0  0  0  0
   -4.2973  -21.1052    2.5803 C   0  0  0  0  0  0  0  0  0  0  0  0
   -4.3700  -19.6738    2.1851 C   0  0  0  0  0  0  0  0  0  0  0  0
   -5.4912  -18.9095    2.5747 N   0  0  0  0  0  0  0  0  0  0  0  0
   -5.4784  -18.0254    3.6843 C   0  0  0  0  0  0  0  0  0  0  0  0
   -4.4312  -17.8998    4.4448 N   0  0  0  0  0  0  0  0  0  0  0  0
   -6.6174  -17.2387    4.0092 N   0  0  0  0  0  0  0  0  0  0  0  0
   -1.8505  -19.4333   -0.1728 N   0  0  0  0  0  0  0  0  0  0  0  0
   -0.7322  -18.6283   -0.6987 C   0  0  2  0  0  0  0  0  0  0  0  0
   -0.7888  -17.3154   -0.0340 C   0  0  0  0  0  0  0  0  0  0  0  0
   -1.8668  -16.6658   -0.0314 O   0  0  0  0  0  0  0  0  0  0  0  0
   -0.8302  -18.6219   -2.1814 C   0  0  0  0  0  0  0  0  0  0  0  0
   -0.3009  -17.4166   -2.8715 C   0  0  0  0  0  0  0  0  0  0  0  0
    0.2452  -17.8333   -4.2471 C   0  0  0  0  0  0  0  0  0  0  0  0
    0.3412  -16.5629   -5.0756 C   0  0  0  0  0  0  0  0  0  0  0  0
    1.0288  -15.5381   -4.3256 N   0  0  0  0  0  4  0  0  0  0  0  0
    1.5787  -14.5288   -5.2011 C   0  0  0  0  0  0  0  0  0  0  0  0
    1.0586  -13.1776   -4.9885 C   0  0  0  0  0  0  0  0  0  0  0  0
    0.4556  -12.4671   -6.0039 C   0  0  0  0  0  0  0  0  0  0  0  0
   -0.0372  -11.1974   -5.8080 C   0  0  0  0  0  0  0  0  0  0  0  0
    0.0635  -10.6023   -4.5775 C   0  0  0  0  0  0  0  0  0  0  0  0
    0.6714  -11.3109   -3.5438 C   0  0  0  0  0  0  0  0  0  0  0  0
    1.1628  -12.5816   -3.7444 C   0  0  0  0  0  0  0  0  0  0  0  0
    0.3263  -16.7579    0.6121 N   0  0  0  0  0  0  0  0  0  0  0  0
    0.2169  -15.4682    1.2520 C   0  0  2  0  0  0  0  0  0  0  0  0
   -0.2596  -14.4780    0.2690 C   0  0  0  0  0  0  0  0  0  0  0  0
   -1.4651  -14.1287    0.2639 O   0  0  0  0  0  0  0  0  0  0  0  0
    1.5777  -15.0122    1.7736 C   0  0  0  0  0  0  0  0  0  0  0  0
    1.4693  -13.7436    2.3750 O   0  0  0  0  0  0  0  0  0  0  0  0
    0.5901  -13.9148   -0.6588 O   0  0  0  0  0  0  0  0  0  0  0  0
   -3.5503  -18.4335    4.2297 H   0  0  0  0  0  0  0  0  0  0  0  0
  1  2  1  0
  2  3  1  0
  2  5  1  1
  3  4  2  0
  3  6  1  0
  6  7  1  0
  7  8  1  0
  7 10  1  6
  8  9  2  0
  8 15  1  0
 10 11  1  0
 11 12  1  0
 12 13  1  0
 13 14  1  0
 15 16  1  0
 16 17  1  0
 16 19  1  6
 17 18  2  0
 17 24  1  0
 19 20  1  0
 20 21  1  0
 21 22  2  0
 21 23  1  0
 25 24  1  1
 25 26  1  0
 25 28  1  0
 26 27  2  0
 26 31  1  0
 28 29  1  0
 28 30  1  1
 31 32  1  0
 32 33  1  0
 32 35  1  6
 33 34  2  0
 33 36  1  0
 36 37  1  0
 37 38  1  0
 37 40  1  1
 38 39  2  0
 38 47  1  0
 40 41  1  0
 41 42  1  0
 42 43  1  0
 43 44  1  0
 44 45  2  0
 44 46  1  0
 47 48  1  0
 48 49  1  0
 48 51  1  6
 49 50  2  0
 49 63  1  0
 51 52  1  0
 52 53  1  0
 53 54  1  0
 54 55  1  0
 55 56  1  0
 56 57  1  0
 57 58  2  0
 57 62  1  0
 58 59  1  0
 59 60  2  0
 60 61  1  0
 61 62  2  0
 63 64  1  0
 64 65  1  0
 64 67  1  6
 65 66  2  0
 65 69  1  0
 67 68  1  0
 45 70  1  0
M  CHG  3   1   1  14   1  55   1
M  END
$$$$
