
     RDKit          3D

 70 70  0  0  0  0  0  0  0  0999 V2000
   -7.3798  -34.3873    4.0030 N   0  0  0  0  0  4  0  0  0  0  0  0
   -8.1229  -34.6379    2.7952 C   0  0  2  0  0  0  0  0  0  0  0  0
   -7.4373  -34.1626    1.5738 C   0  0  0  0  0  0  0  0  0  0  0  0
   -6.2792  -34.6047    1.3702 O   0  0  0  0  0  0  0  0  0  0  0  0
   -9.5602  -34.1927    2.8646 C   0  0  0  0  0  0  0  0  0  0  0  0
   -7.9863  -33.2596    0.6348 N   0  0  0  0  0  0  0  0  0  0  0  0
   -7.3144  -32.8593   -0.5930 C   0  0  2  0  0  0  0  0  0  0  0  0
   -6.1825  -31.9969   -0.2851 C   0  0  0  0  0  0  0  0  0  0  0  0
   -6.3537  -30.9630    0.4554 O   0  0  0  0  0  0  0  0  0  0  0  0
   -8.2786  -32.3208   -1.6171 C   0  0  0  0  0  0  0  0  0  0  0  0
   -7.5473  -31.8771   -2.8687 C   0  0  0  0  0  0  0  0  0  0  0  0
   -7.2569  -33.0600   -3.7272 C   0  0  0  0  0  0  0  0  0  0  0  0
   -6.6097  -32.7114   -5.0461 C   0  0  0  0  0  0  0  0  0  0  0  0
   -7.6858  -32.5107   -6.0150 N   0  0  0  0  0  4  0  0  0  0  0  0
   -4.8851  -32.2906   -0.7970 N   0  0  0  0  0  0  0  0  0  0  0  0
   -3.7799  -31.4299   -0.5703 C   0  0  2  0  0  0  0  0  0  0  0  0
   -4.0193  -30.0003   -0.9756 C   0  0  0  0  0  0  0  0  0  0  0  0
   -4.5192  -29.6975   -2.0930 O   0  0  0  0  0  0  0  0  0  0  0  0
   -2.4407  -31.9448   -1.0125 C   0  0  0  0  0  0  0  0  0  0  0  0
   -2.1258  -33.3590   -0.7197 C   0  0  0  0  0  0  0  0  0  0  0  0
   -2.2260  -33.7990    0.6681 C   0  0  0  0  0  0  0  0  0  0  0  0
   -2.2194  -35.0154    0.9485 O   0  0  0  0  0  0  0  0  0  0  0  0
   -2.3376  -32.8617    1.7239 N   0  0  0  0  0  0  0  0  0  0  0  0
   -3.6838  -28.9556   -0.0911 N   0  0  0  0  0  0  0  0  0  0  0  0
   -3.8181  -27.5414   -0.3773 C   0  0  2  0  0  0  0  0  0  0  0  0
   -2.5896  -26.8664    0.0245 C   0  0  0  0  0  0  0  0  0  0  0  0
   -2.4290  -26.4656    1.2307 O   0  0  0  0  0  0  0  0  0  0  0  0
   -5.0836  -27.0707    0.2616 C   0  0  2  0  0  0  0  0  0  0  0  0
   -5.0756  -27.0961    1.6365 O   0  0  0  0  0  0  0  0  0  0  0  0
   -6.2699  -27.8015   -0.2735 C   0  0  0  0  0  0  0  0  0  0  0  0
   -1.4721  -26.5831   -0.8459 N   0  0  0  0  0  0  0  0  0  0  0  0
   -0.6764  -25.3912   -0.5943 C   0  0  2  0  0  0  0  0  0  0  0  0
   -1.6132  -24.3813    0.0206 C   0  0  0  0  0  0  0  0  0  0  0  0
   -2.6356  -24.8368    0.5803 O   0  0  0  0  0  0  0  0  0  0  0  0
    0.0902  -24.8821   -1.7454 C   0  0  0  0  0  0  0  0  0  0  0  0
   -1.3432  -22.9969   -0.0466 N   0  0  0  0  0  0  0  0  0  0  0  0
   -2.0458  -22.0215    0.7652 C   0  0  2  0  0  0  0  0  0  0  0  0
   -1.5911  -20.6816    0.3989 C   0  0  0  0  0  0  0  0  0  0  0  0
   -0.4001  -20.2472    0.5338 O   0  0  0  0  0  0  0  0  0  0  0  0
   -1.8977  -22.3926    2.1771 C   0  0  0  0  0  0  0  0  0  0  0  0
   -2.6918  -21.6850    3.2056 C   0  0  0  0  0  0  0  0  0  0  0  0
   -3.5585  -22.5151    4.0831 C   0  0  0  0  0  0  0  0  0  0  0  0
   -3.1244  -22.8146    5.3927 N   0  0  0  0  0  0  0  0  0  0  0  0
   -3.9020  -23.5617    6.3147 C   0  0  0  0  0  0  0  0  0  0  0  0
   -3.4773  -23.8162    7.5170 N   0  0  0  0  0  0  0  0  0  0  0  0
   -5.1833  -24.0639    5.9566 N   0  0  0  0  0  0  0  0  0  0  0  0
   -2.4980  -19.7383   -0.1458 N   0  0  0  0  0  0  0  0  0  0  0  0
   -2.0140  -18.4197   -0.5956 C   0  0  2  0  0  0  0  0  0  0  0  0
   -1.5410  -17.6977    0.5975 C   0  0  0  0  0  0  0  0  0  0  0  0
   -2.2623  -17.6602    1.6282 O   0  0  0  0  0  0  0  0  0  0  0  0
   -3.1042  -17.7715   -1.3699 C   0  0  0  0  0  0  0  0  0  0  0  0
   -2.8730  -16.3616   -1.7797 C   0  0  0  0  0  0  0  0  0  0  0  0
   -3.1327  -16.2360   -3.2900 C   0  0  0  0  0  0  0  0  0  0  0  0
   -2.6772  -14.8427   -3.6912 C   0  0  0  0  0  0  0  0  0  0  0  0
   -3.0282  -14.5889   -5.0688 N   0  0  0  0  0  4  0  0  0  0  0  0
   -1.8757  -14.1729   -5.8344 C   0  0  0  0  0  0  0  0  0  0  0  0
   -2.0219  -14.2950   -7.2854 C   0  0  0  0  0  0  0  0  0  0  0  0
   -3.2607  -14.3920   -7.8815 C   0  0  0  0  0  0  0  0  0  0  0  0
   -3.4030  -14.5043   -9.2455 C   0  0  0  0  0  0  0  0  0  0  0  0
   -2.2963  -14.5229  -10.0538 C   0  0  0  0  0  0  0  0  0  0  0  0
   -1.0390  -14.4259   -9.4622 C   0  0  0  0  0  0  0  0  0  0  0  0
   -0.9014  -14.3132   -8.0967 C   0  0  0  0  0  0  0  0  0  0  0  0
   -0.2963  -17.0486    0.6318 N   0  0  0  0  0  0  0  0  0  0  0  0
   -0.0173  -16.0814    1.6670 C   0  0  2  0  0  0  0  0  0  0  0  0
   -0.8172  -14.8669    1.4241 C   0  0  0  0  0  0  0  0  0  0  0  0
   -0.9176  -14.4037    0.2619 O   0  0  0  0  0  0  0  0  0  0  0  0
    1.4600  -15.6953    1.6546 C   0  0  0  0  0  0  0  0  0  0  0  0
    1.8916  -15.4606    0.3349 O   0  0  0  0  0  0  0  0  0  0  0  0
   -1.4685  -14.2142    2.4486 O   0  0  0  0  0  0  0  0  0  0  0  0
   -2.5710  -23.4056    7.8592 H   0  0  0  0  0  0  0  0  0  0  0  0
  1  2  1  0
  2  3  1  0
  2  5  1  1
  3  4  2  0
  3  6  1  0
  6  7  1  0
  7  8  1  0
  7 10  1  6
  8  9  2  0
  8 15  1  0
 10 11  1  0
 11 12  1  0
 12 13  1  0
 13 14  1  0
 15 16  1  0
 16 17  1  0
 16 19  1  6
 17 18  2  0
 17 24  1  0
 19 20  1  0
 20 21  1  0
 21 22  2  0
 21 23  1  0
 25 24  1  1
 25 26  1  0
 25 28  1  0
 26 27  2  0
 26 31  1  0
 28 29  1  0
 28 30  1  6
 31 32  1  0
 32 33  1  0
 32 35  1  6
 33 34  2  0
 33 36  1  0
 36 37  1  0
 37 38  1  0
 37 40  1  1
 38 39  2  0
 38 47  1  0
 40 41  1  0
 41 42  1  0
 42 43  1  0
 43 44  1  0
 44 45  2  0
 44 46  1  0
 47 48  1  0
 48 49  1  0
 48 51  1  1
 49 50  2  0
 49 63  1  0
 51 52  1  0
 52 53  1  0
 53 54  1  0
 54 55  1  0
 55 56  1  0
 56 57  1  0
 57 58  2  0
 57 62  1  0
 58 59  1  0
 59 60  2  0
 60 61  1  0
 61 62  2  0
 63 64  1  0
 64 65  1  0
 64 67  1  6
 65 66  2  0
 65 69  1  0
 67 68  1  0
 45 70  1  0
M  CHG  3   1   1  14   1  55   1
M  END
$$$$
