
     RDKit          3D

 70 70  0  0  0  0  0  0  0  0999 V2000
   -9.4504  -36.1397    0.8380 N   0  0  0  0  0  4  0  0  0  0  0  0
   -9.3881  -36.5162   -0.5507 C   0  0  2  0  0  0  0  0  0  0  0  0
   -8.0996  -36.1789   -1.1939 C   0  0  0  0  0  0  0  0  0  0  0  0
   -7.2619  -37.1093   -1.2983 O   0  0  0  0  0  0  0  0  0  0  0  0
  -10.5762  -36.0596   -1.3562 C   0  0  0  0  0  0  0  0  0  0  0  0
   -7.7511  -34.9023   -1.6914 N   0  0  0  0  0  0  0  0  0  0  0  0
   -6.5162  -34.6220   -2.4097 C   0  0  2  0  0  0  0  0  0  0  0  0
   -6.0731  -33.2634   -2.1309 C   0  0  0  0  0  0  0  0  0  0  0  0
   -6.9369  -32.3192   -2.0379 O   0  0  0  0  0  0  0  0  0  0  0  0
   -6.6144  -34.9842   -3.8684 C   0  0  0  0  0  0  0  0  0  0  0  0
   -7.9653  -34.5928   -4.4338 C   0  0  0  0  0  0  0  0  0  0  0  0
   -8.0315  -34.9585   -5.8768 C   0  0  0  0  0  0  0  0  0  0  0  0
   -8.3889  -36.4047   -6.1231 C   0  0  0  0  0  0  0  0  0  0  0  0
   -7.5179  -36.8882   -7.1931 N   0  0  0  0  0  4  0  0  0  0  0  0
   -4.6885  -32.9721   -1.9586 N   0  0  0  0  0  0  0  0  0  0  0  0
   -4.1993  -32.3325   -0.7902 C   0  0  2  0  0  0  0  0  0  0  0  0
   -4.8789  -31.0279   -0.4717 C   0  0  0  0  0  0  0  0  0  0  0  0
   -6.1347  -30.9204   -0.4347 O   0  0  0  0  0  0  0  0  0  0  0  0
   -2.7059  -32.2605   -0.6532 C   0  0  0  0  0  0  0  0  0  0  0  0
   -2.1651  -31.6560    0.5826 C   0  0  0  0  0  0  0  0  0  0  0  0
   -2.2788  -32.4273    1.8164 C   0  0  0  0  0  0  0  0  0  0  0  0
   -2.7282  -33.5917    1.7957 O   0  0  0  0  0  0  0  0  0  0  0  0
   -1.8891  -31.8743    3.0606 N   0  0  0  0  0  0  0  0  0  0  0  0
   -4.1042  -29.8820   -0.2010 N   0  0  0  0  0  0  0  0  0  0  0  0
   -4.6249  -28.5396   -0.0372 C   0  0  2  0  0  0  0  0  0  0  0  0
   -3.5107  -27.6375    0.2297 C   0  0  0  0  0  0  0  0  0  0  0  0
   -2.4456  -28.0656    0.7986 O   0  0  0  0  0  0  0  0  0  0  0  0
   -5.7044  -28.5979    0.9936 C   0  0  2  0  0  0  0  0  0  0  0  0
   -5.2657  -28.4743    2.2910 O   0  0  0  0  0  0  0  0  0  0  0  0
   -6.5457  -29.8205    0.8344 C   0  0  0  0  0  0  0  0  0  0  0  0
   -3.4821  -26.2304   -0.0957 N   0  0  0  0  0  0  0  0  0  0  0  0
   -2.3360  -25.4399    0.3266 C   0  0  2  0  0  0  0  0  0  0  0  0
   -2.8059  -24.0072    0.3721 C   0  0  0  0  0  0  0  0  0  0  0  0
   -3.8383  -23.7375   -0.2819 O   0  0  0  0  0  0  0  0  0  0  0  0
   -1.0994  -25.6460   -0.4483 C   0  0  0  0  0  0  0  0  0  0  0  0
   -2.1037  -23.0297    1.1107 N   0  0  0  0  0  0  0  0  0  0  0  0
   -2.4346  -21.6186    1.0552 C   0  0  2  0  0  0  0  0  0  0  0  0
   -1.6293  -20.9817    0.0149 C   0  0  0  0  0  0  0  0  0  0  0  0
   -0.4489  -21.3302   -0.3174 O   0  0  0  0  0  0  0  0  0  0  0  0
   -2.3131  -21.0551    2.4045 C   0  0  0  0  0  0  0  0  0  0  0  0
   -1.7179  -21.8708    3.4860 C   0  0  0  0  0  0  0  0  0  0  0  0
   -2.5797  -22.1752    4.6586 C   0  0  0  0  0  0  0  0  0  0  0  0
   -2.6055  -21.2737    5.7449 N   0  0  0  0  0  0  0  0  0  0  0  0
   -1.4456  -20.9072    6.4750 C   0  0  0  0  0  0  0  0  0  0  0  0
   -1.1928  -21.4048    7.6494 N   0  0  0  0  0  0  0  0  0  0  0  0
   -0.5098  -19.9757    5.9471 N   0  0  0  0  0  0  0  0  0  0  0  0
   -2.1383  -19.8774   -0.7135 N   0  0  0  0  0  0  0  0  0  0  0  0
   -1.2293  -19.0348   -1.5128 C   0  0  2  0  0  0  0  0  0  0  0  0
   -0.7590  -17.9477   -0.6377 C   0  0  0  0  0  0  0  0  0  0  0  0
    0.1040  -17.1364   -1.0631 O   0  0  0  0  0  0  0  0  0  0  0  0
   -1.9507  -18.6242   -2.7453 C   0  0  0  0  0  0  0  0  0  0  0  0
   -3.3245  -19.1654   -2.9159 C   0  0  0  0  0  0  0  0  0  0  0  0
   -3.2709  -20.3549   -3.8886 C   0  0  0  0  0  0  0  0  0  0  0  0
   -3.3538  -19.7705   -5.2891 C   0  0  0  0  0  0  0  0  0  0  0  0
   -3.4167  -20.8352   -6.2627 N   0  0  0  0  0  4  0  0  0  0  0  0
   -4.3452  -20.5197   -7.3238 C   0  0  0  0  0  0  0  0  0  0  0  0
   -5.3031  -21.5796   -7.6411 C   0  0  0  0  0  0  0  0  0  0  0  0
   -5.0506  -22.5114   -8.6248 C   0  0  0  0  0  0  0  0  0  0  0  0
   -5.9472  -23.5112   -8.9247 C   0  0  0  0  0  0  0  0  0  0  0  0
   -7.1308  -23.6026   -8.2398 C   0  0  0  0  0  0  0  0  0  0  0  0
   -7.3967  -22.6661   -7.2436 C   0  0  0  0  0  0  0  0  0  0  0  0
   -6.4963  -21.6674   -6.9465 C   0  0  0  0  0  0  0  0  0  0  0  0
   -1.2494  -17.7752    0.6667 N   0  0  0  0  0  0  0  0  0  0  0  0
   -0.7492  -16.6973    1.4869 C   0  0  2  0  0  0  0  0  0  0  0  0
    0.3380  -16.0065    0.7696 C   0  0  0  0  0  0  0  0  0  0  0  0
    1.4292  -15.7834    1.3484 O   0  0  0  0  0  0  0  0  0  0  0  0
   -0.1907  -17.2392    2.8008 C   0  0  0  0  0  0  0  0  0  0  0  0
   -1.1272  -18.0943    3.4129 O   0  0  0  0  0  0  0  0  0  0  0  0
    0.1919  -15.5917   -0.5367 O   0  0  0  0  0  0  0  0  0  0  0  0
   -1.9353  -21.9346    8.1738 H   0  0  0  0  0  0  0  0  0  0  0  0
  1  2  1  0
  2  3  1  0
  2  5  1  6
  3  4  2  0
  3  6  1  0
  6  7  1  0
  7  8  1  0
  7 10  1  6
  8  9  2  0
  8 15  1  0
 10 11  1  0
 11 12  1  0
 12 13  1  0
 13 14  1  0
 15 16  1  0
 16 17  1  0
 16 19  1  6
 17 18  2  0
 17 24  1  0
 19 20  1  0
 20 21  1  0
 21 22  2  0
 21 23  1  0
 25 24  1  1
 25 26  1  0
 25 28  1  0
 26 27  2  0
 26 31  1  0
 28 29  1  0
 28 30  1  1
 31 32  1  0
 32 33  1  0
 32 35  1  6
 33 34  2  0
 33 36  1  0
 36 37  1  0
 37 38  1  0
 37 40  1  1
 38 39  2  0
 38 47  1  0
 40 41  1  0
 41 42  1  0
 42 43  1  0
 43 44  1  0
 44 45  2  0
 44 46  1  0
 47 48  1  0
 48 49  1  0
 48 51  1  6
 49 50  2  0
 49 63  1  0
 51 52  1  0
 52 53  1  0
 53 54  1  0
 54 55  1  0
 55 56  1  0
 56 57  1  0
 57 58  2  0
 57 62  1  0
 58 59  1  0
 59 60  2  0
 60 61  1  0
 61 62  2  0
 63 64  1  0
 64 65  1  0
 64 67  1  1
 65 66  2  0
 65 69  1  0
 67 68  1  0
 45 70  1  0
M  CHG  3   1   1  14   1  55   1
M  END
$$$$
