
     RDKit          3D

 70 70  0  0  0  0  0  0  0  0999 V2000
   -8.8546  -37.4495   -2.0001 N   0  0  0  0  0  4  0  0  0  0  0  0
   -8.8652  -36.1615   -1.3560 C   0  0  2  0  0  0  0  0  0  0  0  0
   -7.7852  -35.2635   -1.8197 C   0  0  0  0  0  0  0  0  0  0  0  0
   -6.6221  -35.5336   -1.4294 O   0  0  0  0  0  0  0  0  0  0  0  0
   -8.9538  -36.2356    0.1458 C   0  0  0  0  0  0  0  0  0  0  0  0
   -7.9685  -34.1401   -2.6583 N   0  0  0  0  0  0  0  0  0  0  0  0
   -6.8865  -33.2692   -3.0940 C   0  0  2  0  0  0  0  0  0  0  0  0
   -6.0830  -32.8600   -1.9508 C   0  0  0  0  0  0  0  0  0  0  0  0
   -6.5459  -33.0067   -0.7630 O   0  0  0  0  0  0  0  0  0  0  0  0
   -7.3791  -32.1495   -3.9727 C   0  0  0  0  0  0  0  0  0  0  0  0
   -7.4967  -32.6040   -5.4141 C   0  0  0  0  0  0  0  0  0  0  0  0
   -6.3248  -33.4524   -5.7709 C   0  0  0  0  0  0  0  0  0  0  0  0
   -6.5783  -34.3850   -6.9310 C   0  0  0  0  0  0  0  0  0  0  0  0
   -7.7410  -33.8701   -7.6524 N   0  0  0  0  0  4  0  0  0  0  0  0
   -4.7861  -32.2993   -2.1379 N   0  0  0  0  0  0  0  0  0  0  0  0
   -4.0114  -31.8275   -1.0466 C   0  0  2  0  0  0  0  0  0  0  0  0
   -3.6096  -30.3813   -1.1562 C   0  0  0  0  0  0  0  0  0  0  0  0
   -2.4729  -30.0337   -1.5773 O   0  0  0  0  0  0  0  0  0  0  0  0
   -2.8828  -32.7143   -0.6060 C   0  0  0  0  0  0  0  0  0  0  0  0
   -2.0551  -33.3360   -1.6613 C   0  0  0  0  0  0  0  0  0  0  0  0
   -1.6019  -32.4815   -2.7541 C   0  0  0  0  0  0  0  0  0  0  0  0
   -0.7228  -31.6171   -2.5587 O   0  0  0  0  0  0  0  0  0  0  0  0
   -2.1493  -32.6083   -4.0541 N   0  0  0  0  0  0  0  0  0  0  0  0
   -4.5194  -29.3711   -0.7844 N   0  0  0  0  0  0  0  0  0  0  0  0
   -4.4626  -28.6048    0.4442 C   0  0  2  0  0  0  0  0  0  0  0  0
   -3.2343  -27.8189    0.4463 C   0  0  0  0  0  0  0  0  0  0  0  0
   -2.0960  -28.3855    0.2893 O   0  0  0  0  0  0  0  0  0  0  0  0
   -4.6528  -29.5577    1.5787 C   0  0  2  0  0  0  0  0  0  0  0  0
   -4.0720  -30.7907    1.3953 O   0  0  0  0  0  0  0  0  0  0  0  0
   -6.0950  -29.7008    1.9355 C   0  0  0  0  0  0  0  0  0  0  0  0
   -3.1623  -26.3867    0.6202 N   0  0  0  0  0  0  0  0  0  0  0  0
   -2.0532  -25.6653    0.0149 C   0  0  2  0  0  0  0  0  0  0  0  0
   -2.1658  -24.2396    0.4946 C   0  0  0  0  0  0  0  0  0  0  0  0
   -1.3044  -23.4378    0.0687 O   0  0  0  0  0  0  0  0  0  0  0  0
   -1.9256  -25.8028   -1.4469 C   0  0  0  0  0  0  0  0  0  0  0  0
   -3.1889  -23.8456    1.3845 N   0  0  0  0  0  0  0  0  0  0  0  0
   -3.3205  -22.4867    1.8744 C   0  0  2  0  0  0  0  0  0  0  0  0
   -2.7675  -21.5674    0.8817 C   0  0  0  0  0  0  0  0  0  0  0  0
   -1.9597  -21.8910   -0.0500 O   0  0  0  0  0  0  0  0  0  0  0  0
   -2.7382  -22.4147    3.2194 C   0  0  0  0  0  0  0  0  0  0  0  0
   -3.5468  -22.8254    4.3884 C   0  0  0  0  0  0  0  0  0  0  0  0
   -3.6465  -21.8619    5.5163 C   0  0  0  0  0  0  0  0  0  0  0  0
   -3.6588  -22.3526    6.8401 N   0  0  0  0  0  0  0  0  0  0  0  0
   -4.8521  -22.5517    7.5814 C   0  0  0  0  0  0  0  0  0  0  0  0
   -5.0581  -21.9528    8.7170 N   0  0  0  0  0  0  0  0  0  0  0  0
   -5.8742  -23.4194    7.1077 N   0  0  0  0  0  0  0  0  0  0  0  0
   -3.1082  -20.1919    0.9068 N   0  0  0  0  0  0  0  0  0  0  0  0
   -2.9906  -19.3771   -0.3169 C   0  0  2  0  0  0  0  0  0  0  0  0
   -1.5764  -18.9876   -0.4481 C   0  0  0  0  0  0  0  0  0  0  0  0
   -0.8034  -19.1116    0.5374 O   0  0  0  0  0  0  0  0  0  0  0  0
   -3.9746  -18.2674   -0.2246 C   0  0  0  0  0  0  0  0  0  0  0  0
   -3.6095  -17.1355    0.6669 C   0  0  0  0  0  0  0  0  0  0  0  0
   -4.8989  -16.4755    1.1827 C   0  0  0  0  0  0  0  0  0  0  0  0
   -5.7687  -16.2181   -0.0366 C   0  0  0  0  0  0  0  0  0  0  0  0
   -6.9938  -15.5659    0.3628 N   0  0  0  0  0  4  0  0  0  0  0  0
   -7.0068  -14.1805   -0.0472 C   0  0  0  0  0  0  0  0  0  0  0  0
   -8.2111  -13.4377    0.3263 C   0  0  0  0  0  0  0  0  0  0  0  0
   -9.2889  -13.3323   -0.5261 C   0  0  0  0  0  0  0  0  0  0  0  0
  -10.4242  -12.6370   -0.1781 C   0  0  0  0  0  0  0  0  0  0  0  0
  -10.5081  -12.0238    1.0448 C   0  0  0  0  0  0  0  0  0  0  0  0
   -9.4246  -12.1235    1.9143 C   0  0  0  0  0  0  0  0  0  0  0  0
   -8.2905  -12.8207    1.5620 C   0  0  0  0  0  0  0  0  0  0  0  0
   -1.0496  -18.4849   -1.6486 N   0  0  0  0  0  0  0  0  0  0  0  0
    0.3010  -18.8169   -2.0367 C   0  0  2  0  0  0  0  0  0  0  0  0
    0.2634  -19.8559   -3.0823 C   0  0  0  0  0  0  0  0  0  0  0  0
   -0.0553  -19.5520   -4.2577 O   0  0  0  0  0  0  0  0  0  0  0  0
    1.0819  -19.3629   -0.8435 C   0  0  0  0  0  0  0  0  0  0  0  0
    2.4403  -19.5192   -1.1801 O   0  0  0  0  0  0  0  0  0  0  0  0
    0.5723  -21.1703   -2.8056 O   0  0  0  0  0  0  0  0  0  0  0  0
   -4.5898  -21.0342    8.9267 H   0  0  0  0  0  0  0  0  0  0  0  0
  1  2  1  0
  2  3  1  0
  2  5  1  1
  3  4  2  0
  3  6  1  0
  6  7  1  0
  7  8  1  0
  7 10  1  1
  8  9  2  0
  8 15  1  0
 10 11  1  0
 11 12  1  0
 12 13  1  0
 13 14  1  0
 15 16  1  0
 16 17  1  0
 16 19  1  6
 17 18  2  0
 17 24  1  0
 19 20  1  0
 20 21  1  0
 21 22  2  0
 21 23  1  0
 25 24  1  6
 25 26  1  0
 25 28  1  0
 26 27  2  0
 26 31  1  0
 28 29  1  0
 28 30  1  6
 31 32  1  0
 32 33  1  0
 32 35  1  6
 33 34  2  0
 33 36  1  0
 36 37  1  0
 37 38  1  0
 37 40  1  1
 38 39  2  0
 38 47  1  0
 40 41  1  0
 41 42  1  0
 42 43  1  0
 43 44  1  0
 44 45  2  0
 44 46  1  0
 47 48  1  0
 48 49  1  0
 48 51  1  1
 49 50  2  0
 49 63  1  0
 51 52  1  0
 52 53  1  0
 53 54  1  0
 54 55  1  0
 55 56  1  0
 56 57  1  0
 57 58  2  0
 57 62  1  0
 58 59  1  0
 59 60  2  0
 60 61  1  0
 61 62  2  0
 63 64  1  0
 64 65  1  0
 64 67  1  1
 65 66  2  0
 65 69  1  0
 67 68  1  0
 45 70  1  0
M  CHG  3   1   1  14   1  55   1
M  END
$$$$
