
     RDKit          3D

 70 70  0  0  0  0  0  0  0  0999 V2000
  -12.9472  -36.3343    3.7002 N   0  0  0  0  0  4  0  0  0  0  0  0
  -12.3741  -35.5122    2.6658 C   0  0  2  0  0  0  0  0  0  0  0  0
  -11.0184  -35.0184    2.9910 C   0  0  0  0  0  0  0  0  0  0  0  0
  -10.3362  -35.7224    3.7766 O   0  0  0  0  0  0  0  0  0  0  0  0
  -13.2904  -34.4181    2.1840 C   0  0  0  0  0  0  0  0  0  0  0  0
  -10.4463  -33.8278    2.4870 N   0  0  0  0  0  0  0  0  0  0  0  0
   -9.0271  -33.5138    2.5668 C   0  0  2  0  0  0  0  0  0  0  0  0
   -8.7742  -32.1959    2.0019 C   0  0  0  0  0  0  0  0  0  0  0  0
   -9.6233  -31.6777    1.1914 O   0  0  0  0  0  0  0  0  0  0  0  0
   -8.1691  -34.6262    2.0236 C   0  0  0  0  0  0  0  0  0  0  0  0
   -7.2879  -34.1286    0.8950 C   0  0  0  0  0  0  0  0  0  0  0  0
   -5.9855  -33.6572    1.4445 C   0  0  0  0  0  0  0  0  0  0  0  0
   -4.8543  -34.6400    1.2588 C   0  0  0  0  0  0  0  0  0  0  0  0
   -3.6637  -34.0472    1.8656 N   0  0  0  0  0  4  0  0  0  0  0  0
   -7.5927  -31.4746    2.3418 N   0  0  0  0  0  0  0  0  0  0  0  0
   -7.3896  -30.1338    1.9238 C   0  0  2  0  0  0  0  0  0  0  0  0
   -6.2293  -29.9511    0.9828 C   0  0  0  0  0  0  0  0  0  0  0  0
   -5.6444  -30.9305    0.4454 O   0  0  0  0  0  0  0  0  0  0  0  0
   -7.4340  -29.0917    3.0037 C   0  0  0  0  0  0  0  0  0  0  0  0
   -8.6992  -28.3476    3.1786 C   0  0  0  0  0  0  0  0  0  0  0  0
   -9.8599  -29.0931    3.6549 C   0  0  0  0  0  0  0  0  0  0  0  0
  -10.9705  -28.9565    3.1017 O   0  0  0  0  0  0  0  0  0  0  0  0
   -9.7557  -29.9807    4.7536 N   0  0  0  0  0  0  0  0  0  0  0  0
   -5.7712  -28.6534    0.6788 N   0  0  0  0  0  0  0  0  0  0  0  0
   -4.7114  -28.3383   -0.2579 C   0  0  2  0  0  0  0  0  0  0  0  0
   -4.3397  -26.9386   -0.0867 C   0  0  0  0  0  0  0  0  0  0  0  0
   -4.8239  -26.2475    0.8773 O   0  0  0  0  0  0  0  0  0  0  0  0
   -5.1747  -28.7493   -1.6172 C   0  0  2  0  0  0  0  0  0  0  0  0
   -6.2606  -28.0497   -2.0887 O   0  0  0  0  0  0  0  0  0  0  0  0
   -5.4220  -30.2196   -1.6881 C   0  0  0  0  0  0  0  0  0  0  0  0
   -3.4336  -26.2070   -0.9413 N   0  0  0  0  0  0  0  0  0  0  0  0
   -2.7520  -25.0412   -0.3998 C   0  0  2  0  0  0  0  0  0  0  0  0
   -1.5315  -24.8291   -1.2605 C   0  0  0  0  0  0  0  0  0  0  0  0
   -0.8331  -25.8401   -1.4975 O   0  0  0  0  0  0  0  0  0  0  0  0
   -2.4720  -25.0815    1.0466 C   0  0  0  0  0  0  0  0  0  0  0  0
   -1.2009  -23.5499   -1.7590 N   0  0  0  0  0  0  0  0  0  0  0  0
   -1.6805  -22.3239   -1.1500 C   0  0  2  0  0  0  0  0  0  0  0  0
   -1.1653  -21.1840   -1.9059 C   0  0  0  0  0  0  0  0  0  0  0  0
   -0.9140  -20.0327   -1.4196 O   0  0  0  0  0  0  0  0  0  0  0  0
   -1.3556  -22.3528    0.2806 C   0  0  0  0  0  0  0  0  0  0  0  0
   -0.0277  -21.8870    0.7377 C   0  0  0  0  0  0  0  0  0  0  0  0
    0.2178  -21.8716    2.2040 C   0  0  0  0  0  0  0  0  0  0  0  0
    1.3644  -21.2151    2.7018 N   0  0  0  0  0  0  0  0  0  0  0  0
    1.5187  -20.8522    4.0646 C   0  0  0  0  0  0  0  0  0  0  0  0
    2.1600  -19.7771    4.4163 N   0  0  0  0  0  0  0  0  0  0  0  0
    0.9749  -21.6556    5.1042 N   0  0  0  0  0  0  0  0  0  0  0  0
   -0.9125  -21.2980   -3.2959 N   0  0  0  0  0  0  0  0  0  0  0  0
   -1.3410  -20.2286   -4.2169 C   0  0  2  0  0  0  0  0  0  0  0  0
   -0.6718  -18.9888   -3.7881 C   0  0  0  0  0  0  0  0  0  0  0  0
   -0.9240  -17.9085   -4.3826 O   0  0  0  0  0  0  0  0  0  0  0  0
   -2.8267  -20.2052   -4.2318 C   0  0  0  0  0  0  0  0  0  0  0  0
   -3.4894  -21.0796   -5.2345 C   0  0  0  0  0  0  0  0  0  0  0  0
   -4.6701  -20.3149   -5.8551 C   0  0  0  0  0  0  0  0  0  0  0  0
   -5.1710  -21.1617   -7.0135 C   0  0  0  0  0  0  0  0  0  0  0  0
   -6.4319  -21.7736   -6.6654 N   0  0  0  0  0  4  0  0  0  0  0  0
   -6.5390  -23.1035   -7.2200 C   0  0  0  0  0  0  0  0  0  0  0  0
   -6.9523  -23.1556   -8.6229 C   0  0  0  0  0  0  0  0  0  0  0  0
   -6.9794  -22.0252   -9.4110 C   0  0  0  0  0  0  0  0  0  0  0  0
   -7.3648  -22.0699  -10.7311 C   0  0  0  0  0  0  0  0  0  0  0  0
   -7.7366  -23.2603  -11.2997 C   0  0  0  0  0  0  0  0  0  0  0  0
   -7.7134  -24.4092  -10.5126 C   0  0  0  0  0  0  0  0  0  0  0  0
   -7.3265  -24.3598   -9.1919 C   0  0  0  0  0  0  0  0  0  0  0  0
    0.2419  -18.9648   -2.7222 N   0  0  0  0  0  0  0  0  0  0  0  0
    0.9428  -17.7436   -2.4025 C   0  0  2  0  0  0  0  0  0  0  0  0
    2.3827  -17.9296   -2.6591 C   0  0  0  0  0  0  0  0  0  0  0  0
    2.9075  -19.0588   -2.5013 O   0  0  0  0  0  0  0  0  0  0  0  0
    0.7583  -17.3908   -0.9283 C   0  0  0  0  0  0  0  0  0  0  0  0
    1.7499  -18.0173   -0.1491 O   0  0  0  0  0  0  0  0  0  0  0  0
    3.1831  -16.8868   -3.0735 O   0  0  0  0  0  0  0  0  0  0  0  0
    2.5578  -19.1322    3.6863 H   0  0  0  0  0  0  0  0  0  0  0  0
  1  2  1  0
  2  3  1  0
  2  5  1  1
  3  4  2  0
  3  6  1  0
  6  7  1  0
  7  8  1  0
  7 10  1  6
  8  9  2  0
  8 15  1  0
 10 11  1  0
 11 12  1  0
 12 13  1  0
 13 14  1  0
 15 16  1  0
 16 17  1  0
 16 19  1  1
 17 18  2  0
 17 24  1  0
 19 20  1  0
 20 21  1  0
 21 22  2  0
 21 23  1  0
 25 24  1  1
 25 26  1  0
 25 28  1  0
 26 27  2  0
 26 31  1  0
 28 29  1  0
 28 30  1  1
 31 32  1  0
 32 33  1  0
 32 35  1  1
 33 34  2  0
 33 36  1  0
 36 37  1  0
 37 38  1  0
 37 40  1  1
 38 39  2  0
 38 47  1  0
 40 41  1  0
 41 42  1  0
 42 43  1  0
 43 44  1  0
 44 45  2  0
 44 46  1  0
 47 48  1  0
 48 49  1  0
 48 51  1  1
 49 50  2  0
 49 63  1  0
 51 52  1  0
 52 53  1  0
 53 54  1  0
 54 55  1  0
 55 56  1  0
 56 57  1  0
 57 58  2  0
 57 62  1  0
 58 59  1  0
 59 60  2  0
 60 61  1  0
 61 62  2  0
 63 64  1  0
 64 65  1  0
 64 67  1  1
 65 66  2  0
 65 69  1  0
 67 68  1  0
 45 70  1  0
M  CHG  3   1   1  14   1  55   1
M  END
$$$$
