
     RDKit          3D

 70 70  0  0  0  0  0  0  0  0999 V2000
   -6.9177  -42.2534   -1.3662 N   0  0  0  0  0  4  0  0  0  0  0  0
   -7.2867  -41.2086   -2.2861 C   0  0  2  0  0  0  0  0  0  0  0  0
   -6.1268  -40.5619   -2.9372 C   0  0  0  0  0  0  0  0  0  0  0  0
   -5.8843  -40.9022   -4.1219 O   0  0  0  0  0  0  0  0  0  0  0  0
   -8.2605  -40.2126   -1.7129 C   0  0  0  0  0  0  0  0  0  0  0  0
   -5.2855  -39.6027   -2.3282 N   0  0  0  0  0  0  0  0  0  0  0  0
   -5.3924  -38.1691   -2.5576 C   0  0  2  0  0  0  0  0  0  0  0  0
   -4.3792  -37.4626   -1.7868 C   0  0  0  0  0  0  0  0  0  0  0  0
   -3.1663  -37.4351   -2.2049 O   0  0  0  0  0  0  0  0  0  0  0  0
   -6.8029  -37.6708   -2.3827 C   0  0  0  0  0  0  0  0  0  0  0  0
   -6.8680  -36.1642   -2.5371 C   0  0  0  0  0  0  0  0  0  0  0  0
   -7.6849  -35.8163   -3.7338 C   0  0  0  0  0  0  0  0  0  0  0  0
   -9.1742  -35.8631   -3.4895 C   0  0  0  0  0  0  0  0  0  0  0  0
   -9.6041  -37.2432   -3.7079 N   0  0  0  0  0  4  0  0  0  0  0  0
   -4.7216  -36.7996   -0.5725 N   0  0  0  0  0  0  0  0  0  0  0  0
   -3.7887  -35.9893    0.1252 C   0  0  2  0  0  0  0  0  0  0  0  0
   -3.1617  -34.9093   -0.7148 C   0  0  0  0  0  0  0  0  0  0  0  0
   -2.2508  -35.1572   -1.5508 O   0  0  0  0  0  0  0  0  0  0  0  0
   -2.7908  -36.7172    0.9787 C   0  0  0  0  0  0  0  0  0  0  0  0
   -2.4221  -38.0899    0.5726 C   0  0  0  0  0  0  0  0  0  0  0  0
   -3.5061  -39.0410    0.3485 C   0  0  0  0  0  0  0  0  0  0  0  0
   -3.9349  -39.2516   -0.8048 O   0  0  0  0  0  0  0  0  0  0  0  0
   -4.0977  -39.7402    1.4287 N   0  0  0  0  0  0  0  0  0  0  0  0
   -3.5954  -33.5752   -0.5787 N   0  0  0  0  0  0  0  0  0  0  0  0
   -3.0708  -32.4453   -1.3190 C   0  0  2  0  0  0  0  0  0  0  0  0
   -2.6852  -31.4063   -0.3712 C   0  0  0  0  0  0  0  0  0  0  0  0
   -3.1740  -31.3884    0.8130 O   0  0  0  0  0  0  0  0  0  0  0  0
   -4.0852  -32.0719   -2.3498 C   0  0  2  0  0  0  0  0  0  0  0  0
   -5.2110  -31.4595   -1.8510 O   0  0  0  0  0  0  0  0  0  0  0  0
   -4.4532  -33.2406   -3.2021 C   0  0  0  0  0  0  0  0  0  0  0  0
   -1.7596  -30.3316   -0.6445 N   0  0  0  0  0  0  0  0  0  0  0  0
   -1.5533  -29.3127    0.3735 C   0  0  2  0  0  0  0  0  0  0  0  0
   -2.2791  -28.0816   -0.1092 C   0  0  0  0  0  0  0  0  0  0  0  0
   -2.3832  -27.9453   -1.3489 O   0  0  0  0  0  0  0  0  0  0  0  0
   -0.1517  -29.0746    0.7619 C   0  0  0  0  0  0  0  0  0  0  0  0
   -2.8011  -27.1360    0.8003 N   0  0  0  0  0  0  0  0  0  0  0  0
   -3.4978  -25.9383    0.3713 C   0  0  2  0  0  0  0  0  0  0  0  0
   -2.6154  -24.7863    0.5460 C   0  0  0  0  0  0  0  0  0  0  0  0
   -2.1622  -24.3702    1.6626 O   0  0  0  0  0  0  0  0  0  0  0  0
   -4.7906  -25.8749    1.0624 C   0  0  0  0  0  0  0  0  0  0  0  0
   -6.0364  -25.7602    0.2724 C   0  0  0  0  0  0  0  0  0  0  0  0
   -7.0574  -24.7922    0.7529 C   0  0  0  0  0  0  0  0  0  0  0  0
   -7.2710  -23.6011    0.0255 N   0  0  0  0  0  0  0  0  0  0  0  0
   -7.1470  -22.3098    0.6000 C   0  0  0  0  0  0  0  0  0  0  0  0
   -6.1307  -21.5417    0.3396 N   0  0  0  0  0  0  0  0  0  0  0  0
   -8.1353  -21.8037    1.4883 N   0  0  0  0  0  0  0  0  0  0  0  0
   -2.2007  -24.0217   -0.5731 N   0  0  0  0  0  0  0  0  0  0  0  0
   -1.4072  -22.7938   -0.3785 C   0  0  2  0  0  0  0  0  0  0  0  0
   -2.3365  -21.7378    0.0572 C   0  0  0  0  0  0  0  0  0  0  0  0
   -3.4906  -21.6805   -0.4416 O   0  0  0  0  0  0  0  0  0  0  0  0
   -0.6527  -22.5328   -1.6318 C   0  0  0  0  0  0  0  0  0  0  0  0
   -1.0396  -21.3158   -2.3925 C   0  0  0  0  0  0  0  0  0  0  0  0
    0.2345  -20.5444   -2.7741 C   0  0  0  0  0  0  0  0  0  0  0  0
    0.4900  -20.8345   -4.2438 C   0  0  0  0  0  0  0  0  0  0  0  0
   -0.1139  -19.8072   -5.0595 N   0  0  0  0  0  4  0  0  0  0  0  0
   -0.2467  -20.2393   -6.4319 C   0  0  0  0  0  0  0  0  0  0  0  0
   -0.8329  -19.2496   -7.3365 C   0  0  0  0  0  0  0  0  0  0  0  0
   -2.0097  -18.5998   -7.0324 C   0  0  0  0  0  0  0  0  0  0  0  0
   -2.5631  -17.6666   -7.8788 C   0  0  0  0  0  0  0  0  0  0  0  0
   -1.9450  -17.3589   -9.0627 C   0  0  0  0  0  0  0  0  0  0  0  0
   -0.7553  -18.0097   -9.3806 C   0  0  0  0  0  0  0  0  0  0  0  0
   -0.2047  -18.9426   -8.5303 C   0  0  0  0  0  0  0  0  0  0  0  0
   -1.9819  -20.7856    1.0263 N   0  0  0  0  0  0  0  0  0  0  0  0
   -3.0066  -20.1556    1.8251 C   0  0  2  0  0  0  0  0  0  0  0  0
   -3.4287  -18.9029    1.1721 C   0  0  0  0  0  0  0  0  0  0  0  0
   -4.3711  -18.2296    1.6559 O   0  0  0  0  0  0  0  0  0  0  0  0
   -2.4701  -19.8173    3.2141 C   0  0  0  0  0  0  0  0  0  0  0  0
   -3.4060  -19.0388    3.9220 O   0  0  0  0  0  0  0  0  0  0  0  0
   -2.8114  -18.4404    0.0298 O   0  0  0  0  0  0  0  0  0  0  0  0
   -5.3838  -21.8567   -0.3311 H   0  0  0  0  0  0  0  0  0  0  0  0
  1  2  1  0
  2  3  1  0
  2  5  1  1
  3  4  2  0
  3  6  1  0
  6  7  1  0
  7  8  1  0
  7 10  1  1
  8  9  2  0
  8 15  1  0
 10 11  1  0
 11 12  1  0
 12 13  1  0
 13 14  1  0
 15 16  1  0
 16 17  1  0
 16 19  1  6
 17 18  2  0
 17 24  1  0
 19 20  1  0
 20 21  1  0
 21 22  2  0
 21 23  1  0
 25 24  1  1
 25 26  1  0
 25 28  1  0
 26 27  2  0
 26 31  1  0
 28 29  1  0
 28 30  1  1
 31 32  1  0
 32 33  1  0
 32 35  1  6
 33 34  2  0
 33 36  1  0
 36 37  1  0
 37 38  1  0
 37 40  1  1
 38 39  2  0
 38 47  1  0
 40 41  1  0
 41 42  1  0
 42 43  1  0
 43 44  1  0
 44 45  2  0
 44 46  1  0
 47 48  1  0
 48 49  1  0
 48 51  1  6
 49 50  2  0
 49 63  1  0
 51 52  1  0
 52 53  1  0
 53 54  1  0
 54 55  1  0
 55 56  1  0
 56 57  1  0
 57 58  2  0
 57 62  1  0
 58 59  1  0
 59 60  2  0
 60 61  1  0
 61 62  2  0
 63 64  1  0
 64 65  1  0
 64 67  1  1
 65 66  2  0
 65 69  1  0
 67 68  1  0
 45 70  1  0
M  CHG  3   1   1  14   1  55   1
M  END
$$$$
