
     RDKit          3D

 70 70  0  0  0  0  0  0  0  0999 V2000
   -6.1103  -38.1033   -0.0676 N   0  0  0  0  0  4  0  0  0  0  0  0
   -6.6596  -36.8513    0.3852 C   0  0  2  0  0  0  0  0  0  0  0  0
   -6.2209  -35.6912   -0.4205 C   0  0  0  0  0  0  0  0  0  0  0  0
   -6.6591  -34.5664   -0.0729 O   0  0  0  0  0  0  0  0  0  0  0  0
   -6.5047  -36.6218    1.8658 C   0  0  0  0  0  0  0  0  0  0  0  0
   -5.3563  -35.7596   -1.5371 N   0  0  0  0  0  0  0  0  0  0  0  0
   -4.9989  -34.6107   -2.3565 C   0  0  2  0  0  0  0  0  0  0  0  0
   -4.7272  -33.4578   -1.5097 C   0  0  0  0  0  0  0  0  0  0  0  0
   -5.5244  -33.1757   -0.5446 O   0  0  0  0  0  0  0  0  0  0  0  0
   -5.9877  -34.3781   -3.4686 C   0  0  0  0  0  0  0  0  0  0  0  0
   -6.5284  -32.9626   -3.4252 C   0  0  0  0  0  0  0  0  0  0  0  0
   -7.3083  -32.6841   -4.6640 C   0  0  0  0  0  0  0  0  0  0  0  0
   -8.4186  -31.6790   -4.4720 C   0  0  0  0  0  0  0  0  0  0  0  0
   -8.0372  -30.4703   -5.2006 N   0  0  0  0  0  4  0  0  0  0  0  0
   -3.5831  -32.6400   -1.7414 N   0  0  0  0  0  0  0  0  0  0  0  0
   -3.2074  -31.6087   -0.8420 C   0  0  2  0  0  0  0  0  0  0  0  0
   -3.7220  -30.2454   -1.2184 C   0  0  0  0  0  0  0  0  0  0  0  0
   -4.6803  -30.0919   -2.0236 O   0  0  0  0  0  0  0  0  0  0  0  0
   -1.7661  -31.5921   -0.4216 C   0  0  0  0  0  0  0  0  0  0  0  0
   -1.4762  -31.7582    1.0184 C   0  0  0  0  0  0  0  0  0  0  0  0
   -2.0318  -32.9301    1.6875 C   0  0  0  0  0  0  0  0  0  0  0  0
   -1.4733  -34.0418    1.5847 O   0  0  0  0  0  0  0  0  0  0  0  0
   -3.2145  -32.8359    2.4609 N   0  0  0  0  0  0  0  0  0  0  0  0
   -3.1293  -29.0943   -0.6616 N   0  0  0  0  0  0  0  0  0  0  0  0
   -3.5829  -27.7342   -0.8725 C   0  0  2  0  0  0  0  0  0  0  0  0
   -2.6418  -26.8246   -0.2297 C   0  0  0  0  0  0  0  0  0  0  0  0
   -1.8038  -27.2574    0.6375 O   0  0  0  0  0  0  0  0  0  0  0  0
   -5.0051  -27.6588   -0.4220 C   0  0  2  0  0  0  0  0  0  0  0  0
   -5.1690  -27.4810    0.9317 O   0  0  0  0  0  0  0  0  0  0  0  0
   -5.7921  -28.8336   -0.8998 C   0  0  0  0  0  0  0  0  0  0  0  0
   -2.5527  -25.4048   -0.4800 N   0  0  0  0  0  0  0  0  0  0  0  0
   -1.7090  -24.5952    0.3859 C   0  0  2  0  0  0  0  0  0  0  0  0
   -2.3414  -23.2264    0.4305 C   0  0  0  0  0  0  0  0  0  0  0  0
   -3.1649  -22.9624   -0.4741 O   0  0  0  0  0  0  0  0  0  0  0  0
   -0.2738  -24.5874    0.0509 C   0  0  0  0  0  0  0  0  0  0  0  0
   -2.0063  -22.2980    1.4403 N   0  0  0  0  0  0  0  0  0  0  0  0
   -2.5487  -20.9533    1.4792 C   0  0  2  0  0  0  0  0  0  0  0  0
   -1.5320  -20.0164    1.0049 C   0  0  0  0  0  0  0  0  0  0  0  0
   -0.4521  -20.3423    0.4109 O   0  0  0  0  0  0  0  0  0  0  0  0
   -3.0848  -20.7026    2.8219 C   0  0  0  0  0  0  0  0  0  0  0  0
   -2.6776  -21.5747    3.9457 C   0  0  0  0  0  0  0  0  0  0  0  0
   -3.7627  -22.1818    4.7607 C   0  0  0  0  0  0  0  0  0  0  0  0
   -3.8423  -23.5878    4.8608 N   0  0  0  0  0  0  0  0  0  0  0  0
   -4.1124  -24.2637    6.0786 C   0  0  0  0  0  0  0  0  0  0  0  0
   -3.4191  -24.0346    7.1546 N   0  0  0  0  0  0  0  0  0  0  0  0
   -5.1576  -25.2235    6.1693 N   0  0  0  0  0  0  0  0  0  0  0  0
   -1.6937  -18.6215    1.1977 N   0  0  0  0  0  0  0  0  0  0  0  0
   -1.0123  -17.6663    0.3041 C   0  0  2  0  0  0  0  0  0  0  0  0
   -1.2435  -16.3177    0.8486 C   0  0  0  0  0  0  0  0  0  0  0  0
   -2.4053  -15.9762    1.1913 O   0  0  0  0  0  0  0  0  0  0  0  0
   -1.4942  -17.9104   -1.0801 C   0  0  0  0  0  0  0  0  0  0  0  0
   -0.9242  -17.0377   -2.1398 C   0  0  0  0  0  0  0  0  0  0  0  0
   -1.4479  -17.5109   -3.5058 C   0  0  0  0  0  0  0  0  0  0  0  0
   -0.5823  -16.8356   -4.5567 C   0  0  0  0  0  0  0  0  0  0  0  0
   -0.9544  -17.3005   -5.8723 N   0  0  0  0  0  4  0  0  0  0  0  0
   -0.0115  -16.8532   -6.8715 C   0  0  0  0  0  0  0  0  0  0  0  0
    0.7653  -17.9179   -7.5075 C   0  0  0  0  0  0  0  0  0  0  0  0
    2.1361  -17.9867   -7.3814 C   0  0  0  0  0  0  0  0  0  0  0  0
    2.8703  -18.9874   -7.9754 C   0  0  0  0  0  0  0  0  0  0  0  0
    2.2428  -19.9533   -8.7182 C   0  0  0  0  0  0  0  0  0  0  0  0
    0.8577  -19.8936   -8.8527 C   0  0  0  0  0  0  0  0  0  0  0  0
    0.1269  -18.8905   -8.2560 C   0  0  0  0  0  0  0  0  0  0  0  0
   -0.2019  -15.3898    1.0096 N   0  0  0  0  0  0  0  0  0  0  0  0
   -0.4505  -14.1393    1.6875 C   0  0  2  0  0  0  0  0  0  0  0  0
   -1.2307  -13.2549    0.8027 C   0  0  0  0  0  0  0  0  0  0  0  0
   -0.9865  -13.2248   -0.4281 O   0  0  0  0  0  0  0  0  0  0  0  0
    0.8657  -13.4427    2.0254 C   0  0  0  0  0  0  0  0  0  0  0  0
    1.1679  -13.6071    3.3909 O   0  0  0  0  0  0  0  0  0  0  0  0
   -2.2354  -12.4479    1.2917 O   0  0  0  0  0  0  0  0  0  0  0  0
   -2.8456  -23.1568    7.2411 H   0  0  0  0  0  0  0  0  0  0  0  0
  1  2  1  0
  2  3  1  0
  2  5  1  1
  3  4  2  0
  3  6  1  0
  6  7  1  0
  7  8  1  0
  7 10  1  6
  8  9  2  0
  8 15  1  0
 10 11  1  0
 11 12  1  0
 12 13  1  0
 13 14  1  0
 15 16  1  0
 16 17  1  0
 16 19  1  6
 17 18  2  0
 17 24  1  0
 19 20  1  0
 20 21  1  0
 21 22  2  0
 21 23  1  0
 25 24  1  1
 25 26  1  0
 25 28  1  0
 26 27  2  0
 26 31  1  0
 28 29  1  0
 28 30  1  1
 31 32  1  0
 32 33  1  0
 32 35  1  6
 33 34  2  0
 33 36  1  0
 36 37  1  0
 37 38  1  0
 37 40  1  1
 38 39  2  0
 38 47  1  0
 40 41  1  0
 41 42  1  0
 42 43  1  0
 43 44  1  0
 44 45  2  0
 44 46  1  0
 47 48  1  0
 48 49  1  0
 48 51  1  6
 49 50  2  0
 49 63  1  0
 51 52  1  0
 52 53  1  0
 53 54  1  0
 54 55  1  0
 55 56  1  0
 56 57  1  0
 57 58  2  0
 57 62  1  0
 58 59  1  0
 59 60  2  0
 60 61  1  0
 61 62  2  0
 63 64  1  0
 64 65  1  0
 64 67  1  6
 65 66  2  0
 65 69  1  0
 67 68  1  0
 45 70  1  0
M  CHG  3   1   1  14   1  55   1
M  END
$$$$
