
     RDKit          3D

 70 70  0  0  0  0  0  0  0  0999 V2000
   -5.6874  -37.8873   -2.0389 N   0  0  0  0  0  4  0  0  0  0  0  0
   -5.9591  -36.8285   -1.1012 C   0  0  2  0  0  0  0  0  0  0  0  0
   -4.8549  -35.8517   -0.9813 C   0  0  0  0  0  0  0  0  0  0  0  0
   -3.6983  -36.2767   -1.2258 O   0  0  0  0  0  0  0  0  0  0  0  0
   -6.4512  -37.3154    0.2366 C   0  0  0  0  0  0  0  0  0  0  0  0
   -5.0087  -34.4945   -0.6165 N   0  0  0  0  0  0  0  0  0  0  0  0
   -4.3470  -33.3921   -1.2991 C   0  0  2  0  0  0  0  0  0  0  0  0
   -4.6814  -32.1310   -0.6526 C   0  0  0  0  0  0  0  0  0  0  0  0
   -5.6435  -31.4166   -1.1115 O   0  0  0  0  0  0  0  0  0  0  0  0
   -4.5668  -33.4340   -2.7885 C   0  0  0  0  0  0  0  0  0  0  0  0
   -3.5525  -34.3384   -3.4603 C   0  0  0  0  0  0  0  0  0  0  0  0
   -2.6587  -33.5287   -4.3355 C   0  0  0  0  0  0  0  0  0  0  0  0
   -2.4782  -34.1031   -5.7201 C   0  0  0  0  0  0  0  0  0  0  0  0
   -2.6491  -35.5510   -5.6122 N   0  0  0  0  0  4  0  0  0  0  0  0
   -3.9514  -31.6828    0.4865 N   0  0  0  0  0  0  0  0  0  0  0  0
   -4.1334  -30.3833    1.0268 C   0  0  2  0  0  0  0  0  0  0  0  0
   -3.7233  -29.2689    0.1020 C   0  0  0  0  0  0  0  0  0  0  0  0
   -3.3469  -29.4872   -1.0815 O   0  0  0  0  0  0  0  0  0  0  0  0
   -3.6516  -30.1800    2.4341 C   0  0  0  0  0  0  0  0  0  0  0  0
   -3.6916  -31.3465    3.3413 C   0  0  0  0  0  0  0  0  0  0  0  0
   -5.0014  -31.8969    3.6749 C   0  0  0  0  0  0  0  0  0  0  0  0
   -5.8742  -31.1777    4.2034 O   0  0  0  0  0  0  0  0  0  0  0  0
   -5.3102  -33.2540    3.4131 N   0  0  0  0  0  0  0  0  0  0  0  0
   -3.7579  -27.9345    0.5543 N   0  0  0  0  0  0  0  0  0  0  0  0
   -4.2121  -26.7990   -0.2231 C   0  0  2  0  0  0  0  0  0  0  0  0
   -3.9504  -25.5812    0.5350 C   0  0  0  0  0  0  0  0  0  0  0  0
   -4.6288  -24.5167    0.3156 O   0  0  0  0  0  0  0  0  0  0  0  0
   -5.6312  -27.0574   -0.6111 C   0  0  2  0  0  0  0  0  0  0  0  0
   -6.5389  -26.9253    0.4135 O   0  0  0  0  0  0  0  0  0  0  0  0
   -5.7810  -28.3821   -1.2823 C   0  0  0  0  0  0  0  0  0  0  0  0
   -2.9464  -25.4402    1.5639 N   0  0  0  0  0  0  0  0  0  0  0  0
   -1.7717  -24.6279    1.2859 C   0  0  2  0  0  0  0  0  0  0  0  0
   -2.2844  -23.2578    0.9178 C   0  0  0  0  0  0  0  0  0  0  0  0
   -3.2301  -23.2172    0.0990 O   0  0  0  0  0  0  0  0  0  0  0  0
   -0.8182  -25.1969    0.3169 C   0  0  0  0  0  0  0  0  0  0  0  0
   -1.7125  -22.0900    1.4685 N   0  0  0  0  0  0  0  0  0  0  0  0
   -2.1552  -20.7564    1.1087 C   0  0  2  0  0  0  0  0  0  0  0  0
   -1.0187  -20.0042    0.5807 C   0  0  0  0  0  0  0  0  0  0  0  0
    0.0872  -19.8208    1.1878 O   0  0  0  0  0  0  0  0  0  0  0  0
   -2.8450  -20.1646    2.2607 C   0  0  0  0  0  0  0  0  0  0  0  0
   -3.0043  -18.6958    2.3414 C   0  0  0  0  0  0  0  0  0  0  0  0
   -2.4734  -18.0217    3.5555 C   0  0  0  0  0  0  0  0  0  0  0  0
   -3.3393  -17.2194    4.3300 N   0  0  0  0  0  0  0  0  0  0  0  0
   -4.3230  -16.3694    3.7618 C   0  0  0  0  0  0  0  0  0  0  0  0
   -5.4911  -16.8181    3.4085 N   0  0  0  0  0  0  0  0  0  0  0  0
   -4.0670  -14.9860    3.5554 N   0  0  0  0  0  0  0  0  0  0  0  0
   -1.0900  -19.3967   -0.6979 N   0  0  0  0  0  0  0  0  0  0  0  0
    0.0745  -18.6716   -1.2395 C   0  0  2  0  0  0  0  0  0  0  0  0
    0.2200  -17.4325   -0.4570 C   0  0  0  0  0  0  0  0  0  0  0  0
   -0.7954  -16.9055    0.0675 O   0  0  0  0  0  0  0  0  0  0  0  0
   -0.1278  -18.5080   -2.7025 C   0  0  0  0  0  0  0  0  0  0  0  0
   -1.1485  -17.5111   -3.1191 C   0  0  0  0  0  0  0  0  0  0  0  0
   -1.2928  -17.5600   -4.6491 C   0  0  0  0  0  0  0  0  0  0  0  0
   -0.4501  -18.7319   -5.1243 C   0  0  0  0  0  0  0  0  0  0  0  0
   -0.4940  -18.8162   -6.5653 N   0  0  0  0  0  4  0  0  0  0  0  0
    0.4063  -19.8334   -7.0577 C   0  0  0  0  0  0  0  0  0  0  0  0
    0.1449  -20.2785   -8.4270 C   0  0  0  0  0  0  0  0  0  0  0  0
   -1.1375  -20.4875   -8.8868 C   0  0  0  0  0  0  0  0  0  0  0  0
   -1.3881  -20.9036  -10.1742 C   0  0  0  0  0  0  0  0  0  0  0  0
   -0.3495  -21.1230  -11.0411 C   0  0  0  0  0  0  0  0  0  0  0  0
    0.9508  -20.9153  -10.5873 C   0  0  0  0  0  0  0  0  0  0  0  0
    1.1970  -20.4985   -9.2981 C   0  0  0  0  0  0  0  0  0  0  0  0
    1.4658  -16.8139   -0.2648 N   0  0  0  0  0  0  0  0  0  0  0  0
    1.5505  -15.5852    0.4890 C   0  0  2  0  0  0  0  0  0  0  0  0
    1.5778  -14.4445   -0.4447 C   0  0  0  0  0  0  0  0  0  0  0  0
    0.7185  -14.3584   -1.3556 O   0  0  0  0  0  0  0  0  0  0  0  0
    2.8297  -15.5556    1.3224 C   0  0  0  0  0  0  0  0  0  0  0  0
    2.5997  -16.1265    2.5890 O   0  0  0  0  0  0  0  0  0  0  0  0
    2.5315  -13.4541   -0.3474 O   0  0  0  0  0  0  0  0  0  0  0  0
   -5.8141  -17.7681    3.7251 H   0  0  0  0  0  0  0  0  0  0  0  0
  1  2  1  0
  2  3  1  0
  2  5  1  1
  3  4  2  0
  3  6  1  0
  6  7  1  0
  7  8  1  0
  7 10  1  6
  8  9  2  0
  8 15  1  0
 10 11  1  0
 11 12  1  0
 12 13  1  0
 13 14  1  0
 15 16  1  0
 16 17  1  0
 16 19  1  1
 17 18  2  0
 17 24  1  0
 19 20  1  0
 20 21  1  0
 21 22  2  0
 21 23  1  0
 25 24  1  1
 25 26  1  0
 25 28  1  0
 26 27  2  0
 26 31  1  0
 28 29  1  0
 28 30  1  1
 31 32  1  0
 32 33  1  0
 32 35  1  6
 33 34  2  0
 33 36  1  0
 36 37  1  0
 37 38  1  0
 37 40  1  1
 38 39  2  0
 38 47  1  0
 40 41  1  0
 41 42  1  0
 42 43  1  0
 43 44  1  0
 44 45  2  0
 44 46  1  0
 47 48  1  0
 48 49  1  0
 48 51  1  6
 49 50  2  0
 49 63  1  0
 51 52  1  0
 52 53  1  0
 53 54  1  0
 54 55  1  0
 55 56  1  0
 56 57  1  0
 57 58  2  0
 57 62  1  0
 58 59  1  0
 59 60  2  0
 60 61  1  0
 61 62  2  0
 63 64  1  0
 64 65  1  0
 64 67  1  6
 65 66  2  0
 65 69  1  0
 67 68  1  0
 45 70  1  0
M  CHG  3   1   1  14   1  55   1
M  END
$$$$
