
     RDKit          3D

 70 70  0  0  0  0  0  0  0  0999 V2000
   -6.3117  -38.9675   -0.3376 N   0  0  0  0  0  4  0  0  0  0  0  0
   -5.8857  -37.7046    0.2080 C   0  0  2  0  0  0  0  0  0  0  0  0
   -6.0622  -36.5713   -0.7260 C   0  0  0  0  0  0  0  0  0  0  0  0
   -6.6427  -36.8217   -1.8116 O   0  0  0  0  0  0  0  0  0  0  0  0
   -4.5106  -37.7424    0.8217 C   0  0  0  0  0  0  0  0  0  0  0  0
   -5.6294  -35.2471   -0.4855 N   0  0  0  0  0  0  0  0  0  0  0  0
   -6.2890  -34.0681   -1.0277 C   0  0  2  0  0  0  0  0  0  0  0  0
   -5.6248  -32.8618   -0.5548 C   0  0  0  0  0  0  0  0  0  0  0  0
   -6.1399  -32.1881    0.4082 O   0  0  0  0  0  0  0  0  0  0  0  0
   -7.7806  -34.1084   -0.8225 C   0  0  0  0  0  0  0  0  0  0  0  0
   -8.5084  -34.1714   -2.1508 C   0  0  0  0  0  0  0  0  0  0  0  0
   -8.2471  -35.4843   -2.8054 C   0  0  0  0  0  0  0  0  0  0  0  0
   -9.2986  -35.8827   -3.8131 C   0  0  0  0  0  0  0  0  0  0  0  0
  -10.5956  -35.4998   -3.2577 N   0  0  0  0  0  4  0  0  0  0  0  0
   -4.4067  -32.4225   -1.1503 N   0  0  0  0  0  0  0  0  0  0  0  0
   -3.5936  -31.4303   -0.5434 C   0  0  2  0  0  0  0  0  0  0  0  0
   -3.9446  -30.0208   -0.9374 C   0  0  0  0  0  0  0  0  0  0  0  0
   -4.6083  -29.7636   -1.9783 O   0  0  0  0  0  0  0  0  0  0  0  0
   -2.1147  -31.6887   -0.5588 C   0  0  0  0  0  0  0  0  0  0  0  0
   -1.6709  -33.0987   -0.5463 C   0  0  0  0  0  0  0  0  0  0  0  0
   -1.6606  -33.7912    0.7383 C   0  0  0  0  0  0  0  0  0  0  0  0
   -1.3436  -34.9968    0.8049 O   0  0  0  0  0  0  0  0  0  0  0  0
   -2.0130  -33.1171    1.9330 N   0  0  0  0  0  0  0  0  0  0  0  0
   -3.5303  -28.9433   -0.1288 N   0  0  0  0  0  0  0  0  0  0  0  0
   -3.8679  -27.5518   -0.3516 C   0  0  2  0  0  0  0  0  0  0  0  0
   -2.7842  -26.7219    0.1616 C   0  0  0  0  0  0  0  0  0  0  0  0
   -1.8216  -27.2429    0.8273 O   0  0  0  0  0  0  0  0  0  0  0  0
   -5.2249  -27.3192    0.2278 C   0  0  2  0  0  0  0  0  0  0  0  0
   -5.2472  -27.1725    1.5949 O   0  0  0  0  0  0  0  0  0  0  0  0
   -6.1915  -28.3703   -0.2067 C   0  0  0  0  0  0  0  0  0  0  0  0
   -2.6783  -25.2914   -0.0090 N   0  0  0  0  0  0  0  0  0  0  0  0
   -1.5997  -24.5863    0.6665 C   0  0  2  0  0  0  0  0  0  0  0  0
   -1.8797  -23.1151    0.4856 C   0  0  0  0  0  0  0  0  0  0  0  0
   -2.5499  -22.7943   -0.5214 O   0  0  0  0  0  0  0  0  0  0  0  0
   -0.2355  -24.9932    0.2854 C   0  0  0  0  0  0  0  0  0  0  0  0
   -1.3976  -22.1596    1.4069 N   0  0  0  0  0  0  0  0  0  0  0  0
   -1.6584  -20.7393    1.2709 C   0  0  2  0  0  0  0  0  0  0  0  0
   -0.8097  -20.1992    0.2105 C   0  0  0  0  0  0  0  0  0  0  0  0
    0.4113  -19.8593    0.3478 O   0  0  0  0  0  0  0  0  0  0  0  0
   -1.5269  -20.1100    2.5898 C   0  0  0  0  0  0  0  0  0  0  0  0
   -1.7087  -20.9265    3.8103 C   0  0  0  0  0  0  0  0  0  0  0  0
   -2.5936  -20.3747    4.8698 C   0  0  0  0  0  0  0  0  0  0  0  0
   -3.9807  -20.6312    4.8091 N   0  0  0  0  0  0  0  0  0  0  0  0
   -4.5510  -21.8883    5.1368 C   0  0  0  0  0  0  0  0  0  0  0  0
   -4.8050  -22.7808    4.2259 N   0  0  0  0  0  0  0  0  0  0  0  0
   -4.8689  -22.2217    6.4820 N   0  0  0  0  0  0  0  0  0  0  0  0
   -1.3264  -20.0037   -1.0948 N   0  0  0  0  0  0  0  0  0  0  0  0
   -0.5585  -19.2285   -2.0871 C   0  0  2  0  0  0  0  0  0  0  0  0
   -0.3488  -17.8841   -1.5237 C   0  0  0  0  0  0  0  0  0  0  0  0
   -1.3187  -17.2659   -1.0126 O   0  0  0  0  0  0  0  0  0  0  0  0
   -1.2846  -19.2953   -3.3818 C   0  0  0  0  0  0  0  0  0  0  0  0
   -0.7723  -18.4226   -4.4704 C   0  0  0  0  0  0  0  0  0  0  0  0
   -1.8721  -18.2579   -5.5322 C   0  0  0  0  0  0  0  0  0  0  0  0
   -1.3103  -18.8237   -6.8260 C   0  0  0  0  0  0  0  0  0  0  0  0
   -2.3798  -19.0441   -7.7710 N   0  0  0  0  0  4  0  0  0  0  0  0
   -1.8738  -19.5548   -9.0243 C   0  0  0  0  0  0  0  0  0  0  0  0
   -2.7444  -20.5224   -9.6930 C   0  0  0  0  0  0  0  0  0  0  0  0
   -2.9229  -21.7966   -9.1989 C   0  0  0  0  0  0  0  0  0  0  0  0
   -3.7425  -22.7088   -9.8229 C   0  0  0  0  0  0  0  0  0  0  0  0
   -4.4098  -22.3634  -10.9692 C   0  0  0  0  0  0  0  0  0  0  0  0
   -4.2367  -21.0784  -11.4779 C   0  0  0  0  0  0  0  0  0  0  0  0
   -3.4157  -20.1685  -10.8498 C   0  0  0  0  0  0  0  0  0  0  0  0
    0.9098  -17.2618   -1.5278 N   0  0  0  0  0  0  0  0  0  0  0  0
    1.0312  -15.8807   -1.1242 C   0  0  2  0  0  0  0  0  0  0  0  0
    0.2232  -15.0393   -2.0259 C   0  0  0  0  0  0  0  0  0  0  0  0
   -0.6264  -14.2467   -1.5512 O   0  0  0  0  0  0  0  0  0  0  0  0
    2.4852  -15.4229   -1.2129 C   0  0  0  0  0  0  0  0  0  0  0  0
    3.2460  -16.3546   -1.9451 O   0  0  0  0  0  0  0  0  0  0  0  0
    0.3739  -15.0961   -3.3948 O   0  0  0  0  0  0  0  0  0  0  0  0
   -4.6382  -23.8014    4.4200 H   0  0  0  0  0  0  0  0  0  0  0  0
  1  2  1  0
  2  3  1  0
  2  5  1  6
  3  4  2  0
  3  6  1  0
  6  7  1  0
  7  8  1  0
  7 10  1  1
  8  9  2  0
  8 15  1  0
 10 11  1  0
 11 12  1  0
 12 13  1  0
 13 14  1  0
 15 16  1  0
 16 17  1  0
 16 19  1  6
 17 18  2  0
 17 24  1  0
 19 20  1  0
 20 21  1  0
 21 22  2  0
 21 23  1  0
 25 24  1  1
 25 26  1  0
 25 28  1  0
 26 27  2  0
 26 31  1  0
 28 29  1  0
 28 30  1  1
 31 32  1  0
 32 33  1  0
 32 35  1  6
 33 34  2  0
 33 36  1  0
 36 37  1  0
 37 38  1  0
 37 40  1  1
 38 39  2  0
 38 47  1  0
 40 41  1  0
 41 42  1  0
 42 43  1  0
 43 44  1  0
 44 45  2  0
 44 46  1  0
 47 48  1  0
 48 49  1  0
 48 51  1  6
 49 50  2  0
 49 63  1  0
 51 52  1  0
 52 53  1  0
 53 54  1  0
 54 55  1  0
 55 56  1  0
 56 57  1  0
 57 58  2  0
 57 62  1  0
 58 59  1  0
 59 60  2  0
 60 61  1  0
 61 62  2  0
 63 64  1  0
 64 65  1  0
 64 67  1  6
 65 66  2  0
 65 69  1  0
 67 68  1  0
 45 70  1  0
M  CHG  3   1   1  14   1  55   1
M  END
$$$$
