
     RDKit          3D

 70 70  0  0  0  0  0  0  0  0999 V2000
   -6.4494  -37.9767    1.9037 N   0  0  0  0  0  4  0  0  0  0  0  0
   -6.5302  -37.9909    0.4659 C   0  0  2  0  0  0  0  0  0  0  0  0
   -6.2336  -36.6804   -0.1526 C   0  0  0  0  0  0  0  0  0  0  0  0
   -6.1825  -36.6488   -1.4074 O   0  0  0  0  0  0  0  0  0  0  0  0
   -7.7974  -38.6093   -0.0638 C   0  0  0  0  0  0  0  0  0  0  0  0
   -6.0073  -35.4802    0.5595 N   0  0  0  0  0  0  0  0  0  0  0  0
   -6.7415  -34.2459    0.3210 C   0  0  2  0  0  0  0  0  0  0  0  0
   -5.9884  -33.1096    0.8323 C   0  0  0  0  0  0  0  0  0  0  0  0
   -5.3708  -33.2082    1.9528 O   0  0  0  0  0  0  0  0  0  0  0  0
   -8.1708  -34.3376    0.7871 C   0  0  0  0  0  0  0  0  0  0  0  0
   -9.1246  -33.8779   -0.2977 C   0  0  0  0  0  0  0  0  0  0  0  0
   -9.4340  -35.0148   -1.2100 C   0  0  0  0  0  0  0  0  0  0  0  0
  -10.5255  -34.7146   -2.2092 C   0  0  0  0  0  0  0  0  0  0  0  0
  -11.4676  -35.8318   -2.1678 N   0  0  0  0  0  4  0  0  0  0  0  0
   -5.9290  -31.8886    0.0995 N   0  0  0  0  0  0  0  0  0  0  0  0
   -4.8192  -31.0100    0.2000 C   0  0  2  0  0  0  0  0  0  0  0  0
   -5.1146  -29.5943   -0.2168 C   0  0  0  0  0  0  0  0  0  0  0  0
   -6.1745  -29.2846   -0.8259 O   0  0  0  0  0  0  0  0  0  0  0  0
   -3.5202  -31.5214   -0.3525 C   0  0  0  0  0  0  0  0  0  0  0  0
   -2.3019  -30.7363   -0.0617 C   0  0  0  0  0  0  0  0  0  0  0  0
   -1.6019  -31.0154    1.1881 C   0  0  0  0  0  0  0  0  0  0  0  0
   -1.7497  -30.2678    2.1768 O   0  0  0  0  0  0  0  0  0  0  0  0
   -0.7390  -32.1321    1.3069 N   0  0  0  0  0  0  0  0  0  0  0  0
   -4.1919  -28.5703    0.0768 N   0  0  0  0  0  0  0  0  0  0  0  0
   -4.3398  -27.1782   -0.2976 C   0  0  2  0  0  0  0  0  0  0  0  0
   -3.1301  -26.4613    0.0885 C   0  0  0  0  0  0  0  0  0  0  0  0
   -2.0799  -27.0997    0.4504 O   0  0  0  0  0  0  0  0  0  0  0  0
   -5.6256  -26.6893    0.2845 C   0  0  2  0  0  0  0  0  0  0  0  0
   -6.0550  -27.3842    1.3908 O   0  0  0  0  0  0  0  0  0  0  0  0
   -6.7015  -26.6223   -0.7478 C   0  0  0  0  0  0  0  0  0  0  0  0
   -2.9848  -25.0242    0.1104 N   0  0  0  0  0  0  0  0  0  0  0  0
   -1.8767  -24.4239   -0.6169 C   0  0  2  0  0  0  0  0  0  0  0  0
   -2.1111  -22.9341   -0.5872 C   0  0  0  0  0  0  0  0  0  0  0  0
   -2.7655  -22.4530   -1.5392 O   0  0  0  0  0  0  0  0  0  0  0  0
   -1.6277  -24.9699   -1.9629 C   0  0  0  0  0  0  0  0  0  0  0  0
   -1.6055  -22.1345    0.4612 N   0  0  0  0  0  0  0  0  0  0  0  0
   -0.9386  -20.8676    0.2283 C   0  0  2  0  0  0  0  0  0  0  0  0
   -1.9067  -19.7841    0.3868 C   0  0  0  0  0  0  0  0  0  0  0  0
   -1.9174  -18.7032   -0.2890 O   0  0  0  0  0  0  0  0  0  0  0  0
   -0.2453  -20.9331   -1.0632 C   0  0  0  0  0  0  0  0  0  0  0  0
    1.2207  -20.7400   -1.1161 C   0  0  0  0  0  0  0  0  0  0  0  0
    1.7256  -19.5964   -1.9207 C   0  0  0  0  0  0  0  0  0  0  0  0
    1.7729  -19.7134   -3.3269 N   0  0  0  0  0  0  0  0  0  0  0  0
    1.0000  -18.9030   -4.1981 C   0  0  0  0  0  0  0  0  0  0  0  0
    0.2877  -19.4177   -5.1564 N   0  0  0  0  0  0  0  0  0  0  0  0
    0.9752  -17.4885   -4.0556 N   0  0  0  0  0  0  0  0  0  0  0  0
   -2.9352  -19.8751    1.3580 N   0  0  0  0  0  0  0  0  0  0  0  0
   -3.7631  -18.6958    1.6729 C   0  0  2  0  0  0  0  0  0  0  0  0
   -3.8597  -18.6092    3.1398 C   0  0  0  0  0  0  0  0  0  0  0  0
   -4.5037  -17.6644    3.6658 O   0  0  0  0  0  0  0  0  0  0  0  0
   -5.0456  -18.8262    0.9338 C   0  0  0  0  0  0  0  0  0  0  0  0
   -6.2859  -18.7644    1.7504 C   0  0  0  0  0  0  0  0  0  0  0  0
   -7.2761  -17.8015    1.0749 C   0  0  0  0  0  0  0  0  0  0  0  0
   -8.3756  -18.6635    0.4768 C   0  0  0  0  0  0  0  0  0  0  0  0
   -9.4503  -17.8263   -0.0023 N   0  0  0  0  0  4  0  0  0  0  0  0
  -10.5181  -17.7394    0.9672 C   0  0  0  0  0  0  0  0  0  0  0  0
  -11.7882  -18.3280    0.5408 C   0  0  0  0  0  0  0  0  0  0  0  0
  -12.0238  -19.6829    0.6319 C   0  0  0  0  0  0  0  0  0  0  0  0
  -13.2174  -20.2403    0.2346 C   0  0  0  0  0  0  0  0  0  0  0  0
  -14.2142  -19.4459   -0.2692 C   0  0  0  0  0  0  0  0  0  0  0  0
  -13.9871  -18.0752   -0.3662 C   0  0  0  0  0  0  0  0  0  0  0  0
  -12.7911  -17.5215    0.0330 C   0  0  0  0  0  0  0  0  0  0  0  0
   -3.2600  -19.5575    3.9840 N   0  0  0  0  0  0  0  0  0  0  0  0
   -3.4376  -19.4626    5.4138 C   0  0  2  0  0  0  0  0  0  0  0  0
   -3.7432  -18.0656    5.7727 C   0  0  0  0  0  0  0  0  0  0  0  0
   -2.8139  -17.2300    5.8898 O   0  0  0  0  0  0  0  0  0  0  0  0
   -2.1604  -19.8778    6.1405 C   0  0  0  0  0  0  0  0  0  0  0  0
   -2.0844  -21.2811    6.2297 O   0  0  0  0  0  0  0  0  0  0  0  0
   -5.0371  -17.6414    5.9866 O   0  0  0  0  0  0  0  0  0  0  0  0
   -0.6431  -19.8617   -4.9480 H   0  0  0  0  0  0  0  0  0  0  0  0
  1  2  1  0
  2  3  1  0
  2  5  1  1
  3  4  2  0
  3  6  1  0
  6  7  1  0
  7  8  1  0
  7 10  1  1
  8  9  2  0
  8 15  1  0
 10 11  1  0
 11 12  1  0
 12 13  1  0
 13 14  1  0
 15 16  1  0
 16 17  1  0
 16 19  1  6
 17 18  2  0
 17 24  1  0
 19 20  1  0
 20 21  1  0
 21 22  2  0
 21 23  1  0
 25 24  1  1
 25 26  1  0
 25 28  1  0
 26 27  2  0
 26 31  1  0
 28 29  1  0
 28 30  1  6
 31 32  1  0
 32 33  1  0
 32 35  1  6
 33 34  2  0
 33 36  1  0
 36 37  1  0
 37 38  1  0
 37 40  1  6
 38 39  2  0
 38 47  1  0
 40 41  1  0
 41 42  1  0
 42 43  1  0
 43 44  1  0
 44 45  2  0
 44 46  1  0
 47 48  1  0
 48 49  1  0
 48 51  1  6
 49 50  2  0
 49 63  1  0
 51 52  1  0
 52 53  1  0
 53 54  1  0
 54 55  1  0
 55 56  1  0
 56 57  1  0
 57 58  2  0
 57 62  1  0
 58 59  1  0
 59 60  2  0
 60 61  1  0
 61 62  2  0
 63 64  1  0
 64 65  1  0
 64 67  1  1
 65 66  2  0
 65 69  1  0
 67 68  1  0
 45 70  1  0
M  CHG  3   1   1  14   1  55   1
M  END
$$$$
