
     RDKit          3D

 70 70  0  0  0  0  0  0  0  0999 V2000
  -16.7035  -33.8610   -2.3141 N   0  0  0  0  0  4  0  0  0  0  0  0
  -15.5087  -34.5846   -1.9636 C   0  0  2  0  0  0  0  0  0  0  0  0
  -14.4320  -33.7201   -1.4335 C   0  0  0  0  0  0  0  0  0  0  0  0
  -14.2978  -33.6898   -0.1849 O   0  0  0  0  0  0  0  0  0  0  0  0
  -15.0259  -35.5167   -3.0439 C   0  0  0  0  0  0  0  0  0  0  0  0
  -13.5575  -32.9378   -2.2224 N   0  0  0  0  0  0  0  0  0  0  0  0
  -12.3006  -32.3879   -1.7357 C   0  0  2  0  0  0  0  0  0  0  0  0
  -12.5214  -31.6572   -0.4959 C   0  0  0  0  0  0  0  0  0  0  0  0
  -13.4992  -30.8306   -0.4103 O   0  0  0  0  0  0  0  0  0  0  0  0
  -11.5589  -31.6338   -2.8080 C   0  0  0  0  0  0  0  0  0  0  0  0
  -10.1851  -31.2145   -2.3235 C   0  0  0  0  0  0  0  0  0  0  0  0
   -9.5055  -30.4076   -3.3759 C   0  0  0  0  0  0  0  0  0  0  0  0
  -10.2565  -29.1568   -3.7646 C   0  0  0  0  0  0  0  0  0  0  0  0
  -11.5242  -29.5809   -4.3565 N   0  0  0  0  0  4  0  0  0  0  0  0
  -11.6627  -31.8522    0.6249 N   0  0  0  0  0  0  0  0  0  0  0  0
  -12.0578  -31.4944    1.9401 C   0  0  2  0  0  0  0  0  0  0  0  0
  -11.2927  -30.3349    2.5190 C   0  0  0  0  0  0  0  0  0  0  0  0
  -11.5864  -29.8324    3.6377 O   0  0  0  0  0  0  0  0  0  0  0  0
  -12.2221  -32.6276    2.9113 C   0  0  0  0  0  0  0  0  0  0  0  0
  -11.9325  -33.9913    2.4198 C   0  0  0  0  0  0  0  0  0  0  0  0
  -10.5476  -34.3078    2.0854 C   0  0  0  0  0  0  0  0  0  0  0  0
  -10.2656  -35.3738    1.5002 O   0  0  0  0  0  0  0  0  0  0  0  0
   -9.4957  -33.4203    2.4194 N   0  0  0  0  0  0  0  0  0  0  0  0
  -10.2102  -29.7830    1.8048 N   0  0  0  0  0  0  0  0  0  0  0  0
   -9.5519  -28.5309    2.1190 C   0  0  2  0  0  0  0  0  0  0  0  0
   -8.5746  -28.2441    1.0755 C   0  0  0  0  0  0  0  0  0  0  0  0
   -7.9316  -29.1936    0.5040 O   0  0  0  0  0  0  0  0  0  0  0  0
   -9.0332  -28.6329    3.5161 C   0  0  2  0  0  0  0  0  0  0  0  0
   -8.1628  -29.6759    3.7298 O   0  0  0  0  0  0  0  0  0  0  0  0
  -10.1456  -28.6607    4.5108 C   0  0  0  0  0  0  0  0  0  0  0  0
   -8.2334  -26.9258    0.5935 N   0  0  0  0  0  0  0  0  0  0  0  0
   -7.2473  -26.8052   -0.4695 C   0  0  2  0  0  0  0  0  0  0  0  0
   -5.9072  -26.6779    0.2113 C   0  0  0  0  0  0  0  0  0  0  0  0
   -5.8614  -27.0041    1.4186 O   0  0  0  0  0  0  0  0  0  0  0  0
   -7.5170  -25.7604   -1.4733 C   0  0  0  0  0  0  0  0  0  0  0  0
   -4.7739  -26.2056   -0.4862 N   0  0  0  0  0  0  0  0  0  0  0  0
   -3.4973  -25.9710    0.1612 C   0  0  2  0  0  0  0  0  0  0  0  0
   -2.5877  -25.3421   -0.7945 C   0  0  0  0  0  0  0  0  0  0  0  0
   -2.5787  -25.5566   -2.0512 O   0  0  0  0  0  0  0  0  0  0  0  0
   -3.0380  -27.2286    0.7616 C   0  0  0  0  0  0  0  0  0  0  0  0
   -3.3529  -28.5130    0.0980 C   0  0  0  0  0  0  0  0  0  0  0  0
   -2.7082  -29.7354    0.6457 C   0  0  0  0  0  0  0  0  0  0  0  0
   -3.4734  -30.9143    0.7806 N   0  0  0  0  0  0  0  0  0  0  0  0
   -2.9448  -32.2112    0.5537 C   0  0  0  0  0  0  0  0  0  0  0  0
   -3.3637  -32.9573   -0.4253 N   0  0  0  0  0  0  0  0  0  0  0  0
   -1.9307  -32.7477    1.3938 N   0  0  0  0  0  0  0  0  0  0  0  0
   -1.6074  -24.4183   -0.3534 N   0  0  0  0  0  0  0  0  0  0  0  0
   -0.6958  -23.7852   -1.3248 C   0  0  2  0  0  0  0  0  0  0  0  0
    0.6526  -24.3204   -1.0712 C   0  0  0  0  0  0  0  0  0  0  0  0
    1.3753  -23.7915   -0.1869 O   0  0  0  0  0  0  0  0  0  0  0  0
   -0.8536  -22.3123   -1.2082 C   0  0  0  0  0  0  0  0  0  0  0  0
   -0.9440  -21.7664    0.1713 C   0  0  0  0  0  0  0  0  0  0  0  0
   -0.8989  -20.2311    0.1004 C   0  0  0  0  0  0  0  0  0  0  0  0
   -2.1370  -19.7297    0.8252 C   0  0  0  0  0  0  0  0  0  0  0  0
   -2.5276  -18.4432    0.2979 N   0  0  0  0  0  4  0  0  0  0  0  0
   -2.1291  -17.3723    1.1822 C   0  0  0  0  0  0  0  0  0  0  0  0
   -1.6994  -16.1452    0.5107 C   0  0  0  0  0  0  0  0  0  0  0  0
   -0.9972  -16.1777   -0.6749 C   0  0  0  0  0  0  0  0  0  0  0  0
   -0.5934  -15.0264   -1.3111 C   0  0  0  0  0  0  0  0  0  0  0  0
   -0.8859  -13.8018   -0.7693 C   0  0  0  0  0  0  0  0  0  0  0  0
   -1.5948  -13.7568    0.4287 C   0  0  0  0  0  0  0  0  0  0  0  0
   -1.9973  -14.9116    1.0618 C   0  0  0  0  0  0  0  0  0  0  0  0
    1.1654  -25.4173   -1.7821 N   0  0  0  0  0  0  0  0  0  0  0  0
    2.2097  -25.2172   -2.7591 C   0  0  2  0  0  0  0  0  0  0  0  0
    2.8040  -23.8817   -2.5668 C   0  0  0  0  0  0  0  0  0  0  0  0
    3.9931  -23.6689   -2.9079 O   0  0  0  0  0  0  0  0  0  0  0  0
    1.6404  -25.2915   -4.1740 C   0  0  0  0  0  0  0  0  0  0  0  0
    0.5486  -26.1801   -4.2143 O   0  0  0  0  0  0  0  0  0  0  0  0
    2.0840  -22.8433   -2.0162 O   0  0  0  0  0  0  0  0  0  0  0  0
   -4.1594  -32.6377   -1.0351 H   0  0  0  0  0  0  0  0  0  0  0  0
  1  2  1  0
  2  3  1  0
  2  5  1  6
  3  4  2  0
  3  6  1  0
  6  7  1  0
  7  8  1  0
  7 10  1  6
  8  9  2  0
  8 15  1  0
 10 11  1  0
 11 12  1  0
 12 13  1  0
 13 14  1  0
 15 16  1  0
 16 17  1  0
 16 19  1  1
 17 18  2  0
 17 24  1  0
 19 20  1  0
 20 21  1  0
 21 22  2  0
 21 23  1  0
 25 24  1  6
 25 26  1  0
 25 28  1  0
 26 27  2  0
 26 31  1  0
 28 29  1  0
 28 30  1  1
 31 32  1  0
 32 33  1  0
 32 35  1  1
 33 34  2  0
 33 36  1  0
 36 37  1  0
 37 38  1  0
 37 40  1  6
 38 39  2  0
 38 47  1  0
 40 41  1  0
 41 42  1  0
 42 43  1  0
 43 44  1  0
 44 45  2  0
 44 46  1  0
 47 48  1  0
 48 49  1  0
 48 51  1  1
 49 50  2  0
 49 63  1  0
 51 52  1  0
 52 53  1  0
 53 54  1  0
 54 55  1  0
 55 56  1  0
 56 57  1  0
 57 58  2  0
 57 62  1  0
 58 59  1  0
 59 60  2  0
 60 61  1  0
 61 62  2  0
 63 64  1  0
 64 65  1  0
 64 67  1  6
 65 66  2  0
 65 69  1  0
 67 68  1  0
 45 70  1  0
M  CHG  3   1   1  14   1  55   1
M  END
$$$$
