
     RDKit          3D

 70 70  0  0  0  0  0  0  0  0999 V2000
  -10.1859  -35.2381   -2.9454 N   0  0  0  0  0  4  0  0  0  0  0  0
   -8.9156  -34.5604   -2.9802 C   0  0  2  0  0  0  0  0  0  0  0  0
   -7.8703  -35.2291   -2.1752 C   0  0  0  0  0  0  0  0  0  0  0  0
   -7.9521  -36.4785   -2.0726 O   0  0  0  0  0  0  0  0  0  0  0  0
   -9.0088  -33.0835   -2.6989 C   0  0  0  0  0  0  0  0  0  0  0  0
   -6.8027  -34.5700   -1.5237 N   0  0  0  0  0  0  0  0  0  0  0  0
   -5.5818  -35.2356   -1.0928 C   0  0  2  0  0  0  0  0  0  0  0  0
   -4.6674  -34.2690   -0.5018 C   0  0  0  0  0  0  0  0  0  0  0  0
   -3.7752  -33.7076   -1.2336 O   0  0  0  0  0  0  0  0  0  0  0  0
   -4.9959  -36.1020   -2.1766 C   0  0  0  0  0  0  0  0  0  0  0  0
   -3.4904  -35.9389   -2.2456 C   0  0  0  0  0  0  0  0  0  0  0  0
   -2.8726  -36.4358   -0.9839 C   0  0  0  0  0  0  0  0  0  0  0  0
   -1.7589  -37.4319   -1.2019 C   0  0  0  0  0  0  0  0  0  0  0  0
   -1.6013  -37.5936   -2.6463 N   0  0  0  0  0  4  0  0  0  0  0  0
   -4.7544  -33.9387    0.8820 N   0  0  0  0  0  0  0  0  0  0  0  0
   -5.1521  -32.6483    1.3186 C   0  0  2  0  0  0  0  0  0  0  0  0
   -4.0671  -31.6086    1.2358 C   0  0  0  0  0  0  0  0  0  0  0  0
   -3.4701  -31.1828    2.2617 O   0  0  0  0  0  0  0  0  0  0  0  0
   -5.9137  -32.5945    2.6114 C   0  0  0  0  0  0  0  0  0  0  0  0
   -7.3001  -32.0840    2.5628 C   0  0  0  0  0  0  0  0  0  0  0  0
   -8.2791  -32.8616    1.8100 C   0  0  0  0  0  0  0  0  0  0  0  0
   -8.9029  -33.7941    2.3575 O   0  0  0  0  0  0  0  0  0  0  0  0
   -8.5399  -32.5817    0.4464 N   0  0  0  0  0  0  0  0  0  0  0  0
   -3.6915  -31.0861   -0.0181 N   0  0  0  0  0  0  0  0  0  0  0  0
   -2.6495  -30.1030   -0.2367 C   0  0  2  0  0  0  0  0  0  0  0  0
   -3.2578  -28.7780   -0.2634 C   0  0  0  0  0  0  0  0  0  0  0  0
   -4.5313  -28.6431   -0.2269 O   0  0  0  0  0  0  0  0  0  0  0  0
   -1.8873  -30.5173   -1.4527 C   0  0  2  0  0  0  0  0  0  0  0  0
   -2.5735  -30.3746   -2.6358 O   0  0  0  0  0  0  0  0  0  0  0  0
   -1.3530  -31.9043   -1.3158 C   0  0  0  0  0  0  0  0  0  0  0  0
   -2.5333  -27.5303   -0.3341 N   0  0  0  0  0  0  0  0  0  0  0  0
   -3.2846  -26.2847   -0.3038 C   0  0  2  0  0  0  0  0  0  0  0  0
   -2.3046  -25.1929   -0.6548 C   0  0  0  0  0  0  0  0  0  0  0  0
   -1.1789  -25.5619   -1.0581 O   0  0  0  0  0  0  0  0  0  0  0  0
   -4.0531  -26.0339    0.9284 C   0  0  0  0  0  0  0  0  0  0  0  0
   -2.6491  -23.8299   -0.5221 N   0  0  0  0  0  0  0  0  0  0  0  0
   -1.7186  -22.7551   -0.8102 C   0  0  2  0  0  0  0  0  0  0  0  0
   -2.3225  -21.4842   -0.4148 C   0  0  0  0  0  0  0  0  0  0  0  0
   -3.4264  -21.0256   -0.8577 O   0  0  0  0  0  0  0  0  0  0  0  0
   -1.2962  -22.8636   -2.2113 C   0  0  0  0  0  0  0  0  0  0  0  0
   -0.5572  -21.7467   -2.8401 C   0  0  0  0  0  0  0  0  0  0  0  0
    0.4989  -22.1013   -3.8246 C   0  0  0  0  0  0  0  0  0  0  0  0
    1.5895  -21.2238   -4.0085 N   0  0  0  0  0  0  0  0  0  0  0  0
    2.5869  -21.4243   -4.9974 C   0  0  0  0  0  0  0  0  0  0  0  0
    3.7842  -20.9339   -4.8685 N   0  0  0  0  0  0  0  0  0  0  0  0
    2.3130  -22.1734   -6.1746 N   0  0  0  0  0  0  0  0  0  0  0  0
   -1.6760  -20.6423    0.5246 N   0  0  0  0  0  0  0  0  0  0  0  0
   -2.4225  -19.5510    1.1780 C   0  0  2  0  0  0  0  0  0  0  0  0
   -2.8045  -18.5928    0.1269 C   0  0  0  0  0  0  0  0  0  0  0  0
   -2.0361  -18.4047   -0.8520 O   0  0  0  0  0  0  0  0  0  0  0  0
   -1.5827  -19.0188    2.2823 C   0  0  0  0  0  0  0  0  0  0  0  0
   -2.0277  -17.7374    2.8899 C   0  0  0  0  0  0  0  0  0  0  0  0
   -1.3046  -17.5490    4.2337 C   0  0  0  0  0  0  0  0  0  0  0  0
   -1.2517  -16.0517    4.4884 C   0  0  0  0  0  0  0  0  0  0  0  0
   -1.6481  -15.7704    5.8482 N   0  0  0  0  0  4  0  0  0  0  0  0
   -0.8721  -16.5438    6.7902 C   0  0  0  0  0  0  0  0  0  0  0  0
   -0.6593  -15.9024    8.0881 C   0  0  0  0  0  0  0  0  0  0  0  0
    0.6051  -15.6038    8.5483 C   0  0  0  0  0  0  0  0  0  0  0  0
    0.8099  -14.9984    9.7668 C   0  0  0  0  0  0  0  0  0  0  0  0
   -0.2580  -14.6744   10.5625 C   0  0  0  0  0  0  0  0  0  0  0  0
   -1.5405  -14.9716   10.1077 C   0  0  0  0  0  0  0  0  0  0  0  0
   -1.7408  -15.5772    8.8873 C   0  0  0  0  0  0  0  0  0  0  0  0
   -4.0124  -17.8784    0.1723 N   0  0  0  0  0  0  0  0  0  0  0  0
   -4.2269  -16.7694   -0.7272 C   0  0  2  0  0  0  0  0  0  0  0  0
   -4.0366  -15.5054    0.0075 C   0  0  0  0  0  0  0  0  0  0  0  0
   -2.8799  -15.1239    0.3108 O   0  0  0  0  0  0  0  0  0  0  0  0
   -5.6504  -16.7955   -1.2793 C   0  0  0  0  0  0  0  0  0  0  0  0
   -5.6731  -16.2896   -2.5933 O   0  0  0  0  0  0  0  0  0  0  0  0
   -5.1051  -14.7170    0.3773 O   0  0  0  0  0  0  0  0  0  0  0  0
    3.9792  -20.1874   -4.1531 H   0  0  0  0  0  0  0  0  0  0  0  0
  1  2  1  0
  2  3  1  0
  2  5  1  1
  3  4  2  0
  3  6  1  0
  6  7  1  0
  7  8  1  0
  7 10  1  6
  8  9  2  0
  8 15  1  0
 10 11  1  0
 11 12  1  0
 12 13  1  0
 13 14  1  0
 15 16  1  0
 16 17  1  0
 16 19  1  1
 17 18  2  0
 17 24  1  0
 19 20  1  0
 20 21  1  0
 21 22  2  0
 21 23  1  0
 25 24  1  6
 25 26  1  0
 25 28  1  0
 26 27  2  0
 26 31  1  0
 28 29  1  0
 28 30  1  1
 31 32  1  0
 32 33  1  0
 32 35  1  1
 33 34  2  0
 33 36  1  0
 36 37  1  0
 37 38  1  0
 37 40  1  6
 38 39  2  0
 38 47  1  0
 40 41  1  0
 41 42  1  0
 42 43  1  0
 43 44  1  0
 44 45  2  0
 44 46  1  0
 47 48  1  0
 48 49  1  0
 48 51  1  1
 49 50  2  0
 49 63  1  0
 51 52  1  0
 52 53  1  0
 53 54  1  0
 54 55  1  0
 55 56  1  0
 56 57  1  0
 57 58  2  0
 57 62  1  0
 58 59  1  0
 59 60  2  0
 60 61  1  0
 61 62  2  0
 63 64  1  0
 64 65  1  0
 64 67  1  1
 65 66  2  0
 65 69  1  0
 67 68  1  0
 45 70  1  0
M  CHG  3   1   1  14   1  55   1
M  END
$$$$
