
     RDKit          3D

 70 70  0  0  0  0  0  0  0  0999 V2000
   -6.2845  -39.6532   -0.1692 N   0  0  0  0  0  4  0  0  0  0  0  0
   -6.4947  -38.3098    0.3053 C   0  0  2  0  0  0  0  0  0  0  0  0
   -5.4634  -37.3553   -0.1561 C   0  0  0  0  0  0  0  0  0  0  0  0
   -4.4794  -37.8416   -0.7671 O   0  0  0  0  0  0  0  0  0  0  0  0
   -6.7441  -38.2230    1.7883 C   0  0  0  0  0  0  0  0  0  0  0  0
   -5.5078  -35.9558    0.0398 N   0  0  0  0  0  0  0  0  0  0  0  0
   -5.6382  -34.9901   -1.0416 C   0  0  2  0  0  0  0  0  0  0  0  0
   -5.6668  -33.6376   -0.5032 C   0  0  0  0  0  0  0  0  0  0  0  0
   -6.3398  -32.7269   -1.1067 O   0  0  0  0  0  0  0  0  0  0  0  0
   -6.7649  -35.3374   -1.9789 C   0  0  0  0  0  0  0  0  0  0  0  0
   -6.6485  -34.5620   -3.2763 C   0  0  0  0  0  0  0  0  0  0  0  0
   -5.4504  -33.6773   -3.2274 C   0  0  0  0  0  0  0  0  0  0  0  0
   -5.1961  -32.9245   -4.5114 C   0  0  0  0  0  0  0  0  0  0  0  0
   -5.3206  -31.4998   -4.2081 N   0  0  0  0  0  4  0  0  0  0  0  0
   -4.9554  -33.3154    0.6891 N   0  0  0  0  0  0  0  0  0  0  0  0
   -3.5761  -32.9823    0.6694 C   0  0  2  0  0  0  0  0  0  0  0  0
   -3.2362  -31.8187   -0.2226 C   0  0  0  0  0  0  0  0  0  0  0  0
   -2.4442  -31.9331   -1.1972 O   0  0  0  0  0  0  0  0  0  0  0  0
   -2.6217  -34.1313    0.5180 C   0  0  0  0  0  0  0  0  0  0  0  0
   -2.3320  -34.9376    1.7226 C   0  0  0  0  0  0  0  0  0  0  0  0
   -3.0279  -34.5825    2.9552 C   0  0  0  0  0  0  0  0  0  0  0  0
   -2.3859  -34.3541    4.0012 O   0  0  0  0  0  0  0  0  0  0  0  0
   -4.4408  -34.4941    2.9954 N   0  0  0  0  0  0  0  0  0  0  0  0
   -3.8134  -30.5564    0.0218 N   0  0  0  0  0  0  0  0  0  0  0  0
   -3.6873  -29.3979   -0.8396 C   0  0  2  0  0  0  0  0  0  0  0  0
   -2.7434  -28.4669   -0.2322 C   0  0  0  0  0  0  0  0  0  0  0  0
   -1.8659  -28.8797    0.6051 O   0  0  0  0  0  0  0  0  0  0  0  0
   -5.0637  -28.8820   -1.1052 C   0  0  2  0  0  0  0  0  0  0  0  0
   -5.6925  -28.3363   -0.0108 O   0  0  0  0  0  0  0  0  0  0  0  0
   -5.9226  -29.9221   -1.7441 C   0  0  0  0  0  0  0  0  0  0  0  0
   -2.6936  -27.0461   -0.4879 N   0  0  0  0  0  0  0  0  0  0  0  0
   -1.6857  -26.2492    0.1948 C   0  0  2  0  0  0  0  0  0  0  0  0
   -1.8812  -24.8294   -0.2757 C   0  0  0  0  0  0  0  0  0  0  0  0
   -2.4844  -24.6795   -1.3619 O   0  0  0  0  0  0  0  0  0  0  0  0
   -0.3005  -26.7390    0.0793 C   0  0  0  0  0  0  0  0  0  0  0  0
   -1.3962  -23.7363    0.4752 N   0  0  0  0  0  0  0  0  0  0  0  0
   -2.0270  -22.4303    0.4545 C   0  0  2  0  0  0  0  0  0  0  0  0
   -0.9910  -21.4028    0.3704 C   0  0  0  0  0  0  0  0  0  0  0  0
   -0.1733  -21.1056    1.3022 O   0  0  0  0  0  0  0  0  0  0  0  0
   -2.9437  -22.3342    1.5962 C   0  0  0  0  0  0  0  0  0  0  0  0
   -3.3562  -21.0025    2.0918 C   0  0  0  0  0  0  0  0  0  0  0  0
   -3.9100  -20.9334    3.4698 C   0  0  0  0  0  0  0  0  0  0  0  0
   -4.2366  -19.6735    4.0167 N   0  0  0  0  0  0  0  0  0  0  0  0
   -5.1117  -18.7560    3.3802 C   0  0  0  0  0  0  0  0  0  0  0  0
   -5.9696  -18.0500    4.0558 N   0  0  0  0  0  0  0  0  0  0  0  0
   -5.0841  -18.5728    1.9703 N   0  0  0  0  0  0  0  0  0  0  0  0
   -0.8359  -20.6327   -0.8094 N   0  0  0  0  0  0  0  0  0  0  0  0
    0.2168  -19.6028   -0.8888 C   0  0  2  0  0  0  0  0  0  0  0  0
   -0.3872  -18.3275   -0.4677 C   0  0  0  0  0  0  0  0  0  0  0  0
   -1.3586  -17.8560   -1.1144 O   0  0  0  0  0  0  0  0  0  0  0  0
    0.7915  -19.6401   -2.2587 C   0  0  0  0  0  0  0  0  0  0  0  0
   -0.1818  -19.7124   -3.3797 C   0  0  0  0  0  0  0  0  0  0  0  0
    0.0404  -18.5062   -4.3070 C   0  0  0  0  0  0  0  0  0  0  0  0
    0.4874  -19.0687   -5.6462 C   0  0  0  0  0  0  0  0  0  0  0  0
    0.1557  -18.1425   -6.7034 N   0  0  0  0  0  4  0  0  0  0  0  0
    0.5433  -18.6618   -7.9948 C   0  0  0  0  0  0  0  0  0  0  0  0
   -0.3747  -18.3430   -9.0890 C   0  0  0  0  0  0  0  0  0  0  0  0
   -0.7825  -17.0500   -9.3369 C   0  0  0  0  0  0  0  0  0  0  0  0
   -1.6434  -16.7453  -10.3661 C   0  0  0  0  0  0  0  0  0  0  0  0
   -2.1221  -17.7387  -11.1801 C   0  0  0  0  0  0  0  0  0  0  0  0
   -1.7169  -19.0493  -10.9386 C   0  0  0  0  0  0  0  0  0  0  0  0
   -0.8547  -19.3496   -9.9077 C   0  0  0  0  0  0  0  0  0  0  0  0
    0.0802  -17.6131    0.6471 N   0  0  0  0  0  0  0  0  0  0  0  0
   -0.3050  -16.2337    0.8311 C   0  0  2  0  0  0  0  0  0  0  0  0
   -0.7872  -15.6897   -0.4516 C   0  0  0  0  0  0  0  0  0  0  0  0
   -0.1886  -14.7265   -0.9895 O   0  0  0  0  0  0  0  0  0  0  0  0
    0.8903  -15.4006    1.2883 C   0  0  0  0  0  0  0  0  0  0  0  0
    1.2444  -15.7393    2.6085 O   0  0  0  0  0  0  0  0  0  0  0  0
   -1.8913  -16.2137   -1.0889 O   0  0  0  0  0  0  0  0  0  0  0  0
   -6.2281  -18.3244    5.0381 H   0  0  0  0  0  0  0  0  0  0  0  0
  1  2  1  0
  2  3  1  0
  2  5  1  1
  3  4  2  0
  3  6  1  0
  6  7  1  0
  7  8  1  0
  7 10  1  1
  8  9  2  0
  8 15  1  0
 10 11  1  0
 11 12  1  0
 12 13  1  0
 13 14  1  0
 15 16  1  0
 16 17  1  0
 16 19  1  6
 17 18  2  0
 17 24  1  0
 19 20  1  0
 20 21  1  0
 21 22  2  0
 21 23  1  0
 25 24  1  1
 25 26  1  0
 25 28  1  0
 26 27  2  0
 26 31  1  0
 28 29  1  0
 28 30  1  1
 31 32  1  0
 32 33  1  0
 32 35  1  6
 33 34  2  0
 33 36  1  0
 36 37  1  0
 37 38  1  0
 37 40  1  1
 38 39  2  0
 38 47  1  0
 40 41  1  0
 41 42  1  0
 42 43  1  0
 43 44  1  0
 44 45  2  0
 44 46  1  0
 47 48  1  0
 48 49  1  0
 48 51  1  6
 49 50  2  0
 49 63  1  0
 51 52  1  0
 52 53  1  0
 53 54  1  0
 54 55  1  0
 55 56  1  0
 56 57  1  0
 57 58  2  0
 57 62  1  0
 58 59  1  0
 59 60  2  0
 60 61  1  0
 61 62  2  0
 63 64  1  0
 64 65  1  0
 64 67  1  6
 65 66  2  0
 65 69  1  0
 67 68  1  0
 45 70  1  0
M  CHG  3   1   1  14   1  55   1
M  END
$$$$
