
     RDKit          3D

 70 70  0  0  0  0  0  0  0  0999 V2000
   -6.4604  -39.6760   -3.3741 N   0  0  0  0  0  4  0  0  0  0  0  0
   -6.0171  -39.1682   -2.1015 C   0  0  2  0  0  0  0  0  0  0  0  0
   -5.7294  -37.7175   -2.1153 C   0  0  0  0  0  0  0  0  0  0  0  0
   -4.8558  -37.3245   -2.9280 O   0  0  0  0  0  0  0  0  0  0  0  0
   -4.9063  -39.9745   -1.4810 C   0  0  0  0  0  0  0  0  0  0  0  0
   -6.3595  -36.7578   -1.2902 N   0  0  0  0  0  0  0  0  0  0  0  0
   -6.5661  -35.3690   -1.6750 C   0  0  2  0  0  0  0  0  0  0  0  0
   -5.5006  -34.5368   -1.1344 C   0  0  0  0  0  0  0  0  0  0  0  0
   -5.2758  -34.5325    0.1289 O   0  0  0  0  0  0  0  0  0  0  0  0
   -7.9666  -34.9010   -1.3782 C   0  0  0  0  0  0  0  0  0  0  0  0
   -8.3280  -33.7001   -2.2298 C   0  0  0  0  0  0  0  0  0  0  0  0
   -9.7382  -33.8206   -2.6961 C   0  0  0  0  0  0  0  0  0  0  0  0
  -10.7182  -33.0011   -1.8912 C   0  0  0  0  0  0  0  0  0  0  0  0
  -11.9024  -32.8030   -2.7252 N   0  0  0  0  0  4  0  0  0  0  0  0
   -4.7034  -33.7276   -1.9953 N   0  0  0  0  0  0  0  0  0  0  0  0
   -3.7367  -32.8221   -1.4861 C   0  0  2  0  0  0  0  0  0  0  0  0
   -4.3111  -31.7238   -0.6323 C   0  0  0  0  0  0  0  0  0  0  0  0
   -5.4436  -31.8245   -0.0870 O   0  0  0  0  0  0  0  0  0  0  0  0
   -2.7169  -32.3237   -2.4688 C   0  0  0  0  0  0  0  0  0  0  0  0
   -2.1585  -33.3033   -3.4246 C   0  0  0  0  0  0  0  0  0  0  0  0
   -1.2469  -34.3144   -2.8989 C   0  0  0  0  0  0  0  0  0  0  0  0
   -0.4372  -34.0270   -1.9933 O   0  0  0  0  0  0  0  0  0  0  0  0
   -1.2554  -35.6374   -3.4042 N   0  0  0  0  0  0  0  0  0  0  0  0
   -3.5736  -30.5413   -0.4221 N   0  0  0  0  0  0  0  0  0  0  0  0
   -4.0794  -29.3419    0.2148 C   0  0  2  0  0  0  0  0  0  0  0  0
   -3.0288  -28.3307    0.2039 C   0  0  0  0  0  0  0  0  0  0  0  0
   -1.8677  -28.6002   -0.2657 O   0  0  0  0  0  0  0  0  0  0  0  0
   -4.6202  -29.7350    1.5505 C   0  0  2  0  0  0  0  0  0  0  0  0
   -4.1256  -29.0060    2.6065 O   0  0  0  0  0  0  0  0  0  0  0  0
   -4.4574  -31.1982    1.7963 C   0  0  0  0  0  0  0  0  0  0  0  0
   -3.1671  -26.9807    0.6989 N   0  0  0  0  0  0  0  0  0  0  0  0
   -2.1427  -26.0048    0.3595 C   0  0  2  0  0  0  0  0  0  0  0  0
   -2.5811  -24.7010    0.9787 C   0  0  0  0  0  0  0  0  0  0  0  0
   -3.5762  -24.7496    1.7361 O   0  0  0  0  0  0  0  0  0  0  0  0
   -1.8020  -25.9100   -1.0712 C   0  0  0  0  0  0  0  0  0  0  0  0
   -1.9009  -23.4946    0.7030 N   0  0  0  0  0  0  0  0  0  0  0  0
   -2.3409  -22.2120    1.2181 C   0  0  2  0  0  0  0  0  0  0  0  0
   -1.9539  -21.1631    0.2766 C   0  0  0  0  0  0  0  0  0  0  0  0
   -1.8819  -21.3013   -0.9887 O   0  0  0  0  0  0  0  0  0  0  0  0
   -1.8468  -22.0640    2.5918 C   0  0  0  0  0  0  0  0  0  0  0  0
   -2.3525  -20.9583    3.4349 C   0  0  0  0  0  0  0  0  0  0  0  0
   -1.9442  -20.9540    4.8644 C   0  0  0  0  0  0  0  0  0  0  0  0
   -2.4582  -19.9579    5.7229 N   0  0  0  0  0  0  0  0  0  0  0  0
   -2.0656  -19.8269    7.0800 C   0  0  0  0  0  0  0  0  0  0  0  0
   -0.8557  -19.4838    7.4104 N   0  0  0  0  0  0  0  0  0  0  0  0
   -2.9859  -20.0678    8.1368 N   0  0  0  0  0  0  0  0  0  0  0  0
   -1.6098  -19.8696    0.7427 N   0  0  0  0  0  0  0  0  0  0  0  0
   -2.1598  -18.6726    0.0794 C   0  0  2  0  0  0  0  0  0  0  0  0
   -1.4250  -17.5078    0.6011 C   0  0  0  0  0  0  0  0  0  0  0  0
   -1.7048  -17.0561    1.7420 O   0  0  0  0  0  0  0  0  0  0  0  0
   -3.6315  -18.6705    0.2853 C   0  0  0  0  0  0  0  0  0  0  0  0
   -4.2157  -17.4270    0.8524 C   0  0  0  0  0  0  0  0  0  0  0  0
   -5.0218  -16.7132   -0.2452 C   0  0  0  0  0  0  0  0  0  0  0  0
   -6.3635  -17.4226   -0.3249 C   0  0  0  0  0  0  0  0  0  0  0  0
   -7.4127  -16.4623   -0.5748 N   0  0  0  0  0  4  0  0  0  0  0  0
   -7.3917  -16.0092   -1.9465 C   0  0  0  0  0  0  0  0  0  0  0  0
   -7.7648  -14.6073   -2.1392 C   0  0  0  0  0  0  0  0  0  0  0  0
   -7.8475  -14.0475   -3.3959 C   0  0  0  0  0  0  0  0  0  0  0  0
   -8.2005  -12.7306   -3.5820 C   0  0  0  0  0  0  0  0  0  0  0  0
   -8.4817  -11.9342   -2.5025 C   0  0  0  0  0  0  0  0  0  0  0  0
   -8.4011  -12.4894   -1.2277 C   0  0  0  0  0  0  0  0  0  0  0  0
   -8.0478  -13.8079   -1.0462 C   0  0  0  0  0  0  0  0  0  0  0  0
   -0.4057  -16.8795   -0.1323 N   0  0  0  0  0  0  0  0  0  0  0  0
    0.5634  -16.0514    0.5460 C   0  0  2  0  0  0  0  0  0  0  0  0
   -0.0258  -14.7238    0.7990 C   0  0  0  0  0  0  0  0  0  0  0  0
    0.6645  -13.8227    1.3348 O   0  0  0  0  0  0  0  0  0  0  0  0
    1.8092  -15.8685   -0.3177 C   0  0  0  0  0  0  0  0  0  0  0  0
    2.7905  -15.1464    0.3885 O   0  0  0  0  0  0  0  0  0  0  0  0
   -1.3305  -14.4362    0.4603 O   0  0  0  0  0  0  0  0  0  0  0  0
   -0.1405  -19.2741    6.6677 H   0  0  0  0  0  0  0  0  0  0  0  0
  1  2  1  0
  2  3  1  0
  2  5  1  6
  3  4  2  0
  3  6  1  0
  6  7  1  0
  7  8  1  0
  7 10  1  1
  8  9  2  0
  8 15  1  0
 10 11  1  0
 11 12  1  0
 12 13  1  0
 13 14  1  0
 15 16  1  0
 16 17  1  0
 16 19  1  6
 17 18  2  0
 17 24  1  0
 19 20  1  0
 20 21  1  0
 21 22  2  0
 21 23  1  0
 25 24  1  1
 25 26  1  0
 25 28  1  0
 26 27  2  0
 26 31  1  0
 28 29  1  0
 28 30  1  1
 31 32  1  0
 32 33  1  0
 32 35  1  6
 33 34  2  0
 33 36  1  0
 36 37  1  0
 37 38  1  0
 37 40  1  1
 38 39  2  0
 38 47  1  0
 40 41  1  0
 41 42  1  0
 42 43  1  0
 43 44  1  0
 44 45  2  0
 44 46  1  0
 47 48  1  0
 48 49  1  0
 48 51  1  1
 49 50  2  0
 49 63  1  0
 51 52  1  0
 52 53  1  0
 53 54  1  0
 54 55  1  0
 55 56  1  0
 56 57  1  0
 57 58  2  0
 57 62  1  0
 58 59  1  0
 59 60  2  0
 60 61  1  0
 61 62  2  0
 63 64  1  0
 64 65  1  0
 64 67  1  6
 65 66  2  0
 65 69  1  0
 67 68  1  0
 45 70  1  0
M  CHG  3   1   1  14   1  55   1
M  END
$$$$
