
     RDKit          3D

 50 50  0  0  0  0  0  0  0  0999 V2000
   18.0036   10.5295   25.5436 N   0  0  0  0  0  4  0  0  0  0  0  0
   17.6037    9.4901   26.4052 C   0  0  2  0  0  0  0  0  0  0  0  0
   16.4446    8.6917   25.8993 C   0  0  0  0  0  0  0  0  0  0  0  0
   15.5862    9.2983   25.2507 O   0  0  0  0  0  0  0  0  0  0  0  0
   17.3342    9.8803   27.8061 C   0  0  0  0  0  0  0  0  0  0  0  0
   16.5833   11.1223   28.0291 C   0  0  0  0  0  0  0  0  0  0  0  0
   16.2558   11.5872   29.3887 C   0  0  0  0  0  0  0  0  0  0  0  0
   15.4620   12.8891   29.4056 C   0  0  0  0  0  0  0  0  0  0  0  0
   16.2726    7.3039   26.1187 N   0  0  0  0  0  0  0  0  0  0  0  0
   15.1789    6.5244   25.5394 C   0  0  2  0  0  0  0  0  0  0  0  0
   14.1458    6.2080   26.5184 C   0  0  0  0  0  0  0  0  0  0  0  0
   14.4608    5.8816   27.6825 O   0  0  0  0  0  0  0  0  0  0  0  0
   15.7660    5.3352   24.8307 C   0  0  0  0  0  0  0  0  0  0  0  0
   12.7606    6.2576   26.1938 N   0  0  0  0  0  0  0  0  0  0  0  0
   11.7460    5.9947   27.2057 C   0  0  2  0  0  0  0  0  0  0  0  0
   11.4109    4.5348   27.1557 C   0  0  0  0  0  0  0  0  0  0  0  0
   11.3146    3.9517   26.0722 O   0  0  0  0  0  0  0  0  0  0  0  0
   10.5123    6.8157   27.0569 C   0  0  0  0  0  0  0  0  0  0  0  0
   10.8285    8.2272   27.3903 C   0  0  0  0  0  0  0  0  0  0  0  0
    9.9010    9.1011   27.3336 O   0  0  0  0  0  0  0  0  0  0  0  0
   12.0826    8.6758   27.7665 O   0  0  0  0  0  0  0  0  0  0  0  0
   11.2049    3.7863   28.3328 N   0  0  0  0  0  0  0  0  0  0  0  0
   10.4420    2.6309   28.5661 C   0  0  2  0  0  0  0  0  0  0  0  0
    9.1436    2.8803   29.2277 C   0  0  0  0  0  0  0  0  0  0  0  0
    9.0949    3.7939   30.1550 O   0  0  0  0  0  0  0  0  0  0  0  0
   11.1421    1.5285   29.3148 C   0  0  2  0  0  0  0  0  0  0  0  0
   10.2121    0.5059   29.4934 O   0  0  0  0  0  0  0  0  0  0  0  0
   11.6384    1.9323   30.6715 C   0  0  0  0  0  0  0  0  0  0  0  0
    7.9456    2.2036   28.9326 N   0  0  0  0  0  0  0  0  0  0  0  0
    6.6828    2.4690   29.6651 C   0  0  2  0  0  0  0  0  0  0  0  0
    6.1711    1.2206   30.2532 C   0  0  0  0  0  0  0  0  0  0  0  0
    6.4868    0.1281   29.7637 O   0  0  0  0  0  0  0  0  0  0  0  0
    5.7040    3.0657   28.7087 C   0  0  2  0  0  0  0  0  0  0  0  0
    5.4599    2.2072   27.6264 O   0  0  0  0  0  0  0  0  0  0  0  0
    6.1490    4.4213   28.2548 C   0  0  0  0  0  0  0  0  0  0  0  0
    5.3035    1.1686   31.4208 N   0  0  0  0  0  0  0  0  0  0  0  0
    4.7944   -0.0710   31.8875 C   0  0  2  0  0  0  0  0  0  0  0  0
    3.3913   -0.3197   31.8514 C   0  0  0  0  0  0  0  0  0  0  0  0
    2.6462    0.7499   32.0030 O   0  0  0  0  0  0  0  0  0  0  0  0
    5.1568   -0.1692   33.4258 C   0  0  2  0  0  0  0  0  0  0  0  0
    4.7406    1.0437   33.9530 O   0  0  0  0  0  0  0  0  0  0  0  0
    6.6438   -0.2483   33.4906 C   0  0  0  0  0  0  0  0  0  0  0  0
    2.6019   -1.4960   31.6779 N   0  0  0  0  0  0  0  0  0  0  0  0
    1.1526   -1.4538   31.5616 C   0  0  2  0  0  0  0  0  0  0  0  0
    0.4980   -0.8558   32.7544 C   0  0  0  0  0  0  0  0  0  0  0  0
   -0.7420   -0.2836   32.8006 O   0  0  0  0  0  0  0  0  0  0  0  0
    0.7303   -2.8789   31.3660 C   0  0  0  0  0  0  0  0  0  0  0  0
    1.8483   -3.6796   32.0122 C   0  0  0  0  0  0  0  0  0  0  0  0
    3.0644   -2.8531   31.6154 C   0  0  0  0  0  0  0  0  0  0  0  0
    1.1926   -0.8955   33.8284 O   0  0  0  0  0  0  0  0  0  0  0  0
  2  1  1  6
  2  3  1  0
  2  5  1  0
  3  4  2  0
  3  9  1  0
  5  6  1  0
  6  7  1  0
  7  8  1  0
  9 10  1  0
 10 11  1  0
 10 13  1  1
 11 12  2  0
 11 14  1  0
 14 15  1  0
 15 16  1  0
 15 18  1  6
 16 17  2  0
 16 22  1  0
 18 19  1  0
 19 20  2  0
 19 21  1  0
 23 22  1  1
 23 24  1  0
 23 26  1  0
 24 25  2  0
 24 29  1  0
 26 27  1  0
 26 28  1  1
 30 29  1  6
 30 31  1  0
 30 33  1  0
 31 32  2  0
 31 36  1  0
 33 34  1  0
 33 35  1  6
 37 36  1  1
 37 38  1  0
 37 40  1  0
 38 39  2  0
 38 43  1  0
 40 41  1  0
 40 42  1  6
 43 44  1  0
 43 49  1  0
 44 45  1  1
 44 47  1  0
 45 46  1  0
 45 50  2  0
 47 48  1  0
 48 49  1  0
M  CHG  1   1   1
M  END
$$$$
