
     RDKit          3D

 50 50  0  0  0  0  0  0  0  0999 V2000
   19.3864    8.5267   27.8286 N   0  0  0  0  0  4  0  0  0  0  0  0
   18.2798    8.3096   26.9854 C   0  0  2  0  0  0  0  0  0  0  0  0
   16.9585    8.3927   27.6813 C   0  0  0  0  0  0  0  0  0  0  0  0
   16.9615    8.8139   28.8423 O   0  0  0  0  0  0  0  0  0  0  0  0
   18.3142    7.0688   26.1814 C   0  0  0  0  0  0  0  0  0  0  0  0
   17.2955    6.9130   25.1354 C   0  0  0  0  0  0  0  0  0  0  0  0
   17.3320    5.7819   24.1914 C   0  0  0  0  0  0  0  0  0  0  0  0
   17.0662    6.1933   22.7473 C   0  0  0  0  0  0  0  0  0  0  0  0
   15.7231    8.0198   27.0994 N   0  0  0  0  0  0  0  0  0  0  0  0
   14.4304    8.5351   27.5496 C   0  0  2  0  0  0  0  0  0  0  0  0
   13.3453    7.5902   27.3130 C   0  0  0  0  0  0  0  0  0  0  0  0
   12.1665    7.9059   27.5807 O   0  0  0  0  0  0  0  0  0  0  0  0
   14.2262    9.8981   26.9484 C   0  0  0  0  0  0  0  0  0  0  0  0
   13.5805    6.2928   26.7763 N   0  0  0  0  0  0  0  0  0  0  0  0
   12.4788    5.3671   26.5492 C   0  0  2  0  0  0  0  0  0  0  0  0
   12.6115    4.2414   27.5295 C   0  0  0  0  0  0  0  0  0  0  0  0
   13.3794    4.3364   28.4911 O   0  0  0  0  0  0  0  0  0  0  0  0
   12.4062    4.8384   25.1586 C   0  0  0  0  0  0  0  0  0  0  0  0
   11.0886    4.1844   24.9589 C   0  0  0  0  0  0  0  0  0  0  0  0
   11.0375    3.0645   24.3503 O   0  0  0  0  0  0  0  0  0  0  0  0
    9.8847    4.7109   25.3934 O   0  0  0  0  0  0  0  0  0  0  0  0
   11.8653    3.0530   27.3910 N   0  0  0  0  0  0  0  0  0  0  0  0
   11.0829    2.3452   28.3175 C   0  0  2  0  0  0  0  0  0  0  0  0
    9.6921    2.0997   27.8801 C   0  0  0  0  0  0  0  0  0  0  0  0
    9.5056    1.3981   26.7985 O   0  0  0  0  0  0  0  0  0  0  0  0
   11.0393    2.9212   29.7076 C   0  0  2  0  0  0  0  0  0  0  0  0
   10.7735    4.2828   29.5738 O   0  0  0  0  0  0  0  0  0  0  0  0
   12.3260    2.7826   30.4658 C   0  0  0  0  0  0  0  0  0  0  0  0
    8.5437    2.5677   28.5452 N   0  0  0  0  0  0  0  0  0  0  0  0
    7.1787    2.1039   28.1942 C   0  0  2  0  0  0  0  0  0  0  0  0
    6.3034    2.1787   29.3751 C   0  0  0  0  0  0  0  0  0  0  0  0
    6.3232    1.2755   30.2215 O   0  0  0  0  0  0  0  0  0  0  0  0
    7.2785    0.7081   27.6736 C   0  0  2  0  0  0  0  0  0  0  0  0
    8.3311    0.5801   26.7552 O   0  0  0  0  0  0  0  0  0  0  0  0
    5.9753    0.2526   27.0943 C   0  0  0  0  0  0  0  0  0  0  0  0
    5.3942    3.2834   29.6434 N   0  0  0  0  0  0  0  0  0  0  0  0
    4.5734    3.2780   30.8009 C   0  0  2  0  0  0  0  0  0  0  0  0
    3.3647    2.5224   30.8092 C   0  0  0  0  0  0  0  0  0  0  0  0
    2.7936    2.3989   29.6342 O   0  0  0  0  0  0  0  0  0  0  0  0
    4.0898    4.7682   31.0308 C   0  0  2  0  0  0  0  0  0  0  0  0
    3.2424    5.0211   29.9629 O   0  0  0  0  0  0  0  0  0  0  0  0
    5.3081    5.6171   30.9026 C   0  0  0  0  0  0  0  0  0  0  0  0
    2.6267    1.8528   31.8309 N   0  0  0  0  0  0  0  0  0  0  0  0
    1.3413    1.2203   31.5789 C   0  0  2  0  0  0  0  0  0  0  0  0
    0.3183    2.1770   31.0817 C   0  0  0  0  0  0  0  0  0  0  0  0
    0.3105    3.5303   31.2704 O   0  0  0  0  0  0  0  0  0  0  0  0
    0.9329    0.6192   32.8901 C   0  0  0  0  0  0  0  0  0  0  0  0
    1.6580    1.4697   33.9195 C   0  0  0  0  0  0  0  0  0  0  0  0
    2.9854    1.7119   33.2133 C   0  0  0  0  0  0  0  0  0  0  0  0
   -0.6377    1.6476   30.4160 O   0  0  0  0  0  0  0  0  0  0  0  0
  2  1  1  1
  2  3  1  0
  2  5  1  0
  3  4  2  0
  3  9  1  0
  5  6  1  0
  6  7  1  0
  7  8  1  0
  9 10  1  0
 10 11  1  0
 10 13  1  6
 11 12  2  0
 11 14  1  0
 14 15  1  0
 15 16  1  0
 15 18  1  6
 16 17  2  0
 16 22  1  0
 18 19  1  0
 19 20  2  0
 19 21  1  0
 23 22  1  6
 23 24  1  0
 23 26  1  0
 24 25  2  0
 24 29  1  0
 26 27  1  0
 26 28  1  6
 30 29  1  1
 30 31  1  0
 30 33  1  0
 31 32  2  0
 31 36  1  0
 33 34  1  0
 33 35  1  6
 37 36  1  6
 37 38  1  0
 37 40  1  0
 38 39  2  0
 38 43  1  0
 40 41  1  0
 40 42  1  6
 43 44  1  0
 43 49  1  0
 44 45  1  1
 44 47  1  0
 45 46  1  0
 45 50  2  0
 47 48  1  0
 48 49  1  0
M  CHG  1   1   1
M  END
$$$$
