
     RDKit          3D

 50 50  0  0  0  0  0  0  0  0999 V2000
    7.8131   -1.5905   25.0759 N   0  0  0  0  0  4  0  0  0  0  0  0
    7.3552   -0.2785   25.3028 C   0  0  2  0  0  0  0  0  0  0  0  0
    6.8754   -0.0337   26.6980 C   0  0  0  0  0  0  0  0  0  0  0  0
    6.2029    0.9844   26.8894 O   0  0  0  0  0  0  0  0  0  0  0  0
    6.3345    0.2219   24.3567 C   0  0  0  0  0  0  0  0  0  0  0  0
    4.9940   -0.3727   24.4321 C   0  0  0  0  0  0  0  0  0  0  0  0
    4.0454   -0.2711   23.3088 C   0  0  0  0  0  0  0  0  0  0  0  0
    2.6349    0.1116   23.7439 C   0  0  0  0  0  0  0  0  0  0  0  0
    7.1445   -0.8840   27.7973 N   0  0  0  0  0  0  0  0  0  0  0  0
    6.7458   -0.5785   29.1709 C   0  0  2  0  0  0  0  0  0  0  0  0
    7.1367    0.7671   29.5743 C   0  0  0  0  0  0  0  0  0  0  0  0
    6.9196    1.7385   28.8191 O   0  0  0  0  0  0  0  0  0  0  0  0
    7.2444   -1.6785   30.0668 C   0  0  0  0  0  0  0  0  0  0  0  0
    7.7701    1.0245   30.8230 N   0  0  0  0  0  0  0  0  0  0  0  0
    8.1462    2.3792   31.2050 C   0  0  2  0  0  0  0  0  0  0  0  0
    9.4867    2.6737   30.6029 C   0  0  0  0  0  0  0  0  0  0  0  0
   10.4610    1.9638   30.8677 O   0  0  0  0  0  0  0  0  0  0  0  0
    8.1761    2.6096   32.6761 C   0  0  0  0  0  0  0  0  0  0  0  0
    6.7930    2.5176   33.2074 C   0  0  0  0  0  0  0  0  0  0  0  0
    6.6191    2.2478   34.4420 O   0  0  0  0  0  0  0  0  0  0  0  0
    5.6528    2.7068   32.4462 O   0  0  0  0  0  0  0  0  0  0  0  0
    9.6743    3.7550   29.7178 N   0  0  0  0  0  0  0  0  0  0  0  0
   10.7246    4.0475   28.8330 C   0  0  2  0  0  0  0  0  0  0  0  0
   11.0409    5.4870   28.7160 C   0  0  0  0  0  0  0  0  0  0  0  0
   10.0485    6.3299   28.6723 O   0  0  0  0  0  0  0  0  0  0  0  0
   10.5801    3.4879   27.4430 C   0  0  2  0  0  0  0  0  0  0  0  0
   11.7154    3.8719   26.7315 O   0  0  0  0  0  0  0  0  0  0  0  0
    9.3833    4.0025   26.6997 C   0  0  0  0  0  0  0  0  0  0  0  0
   12.3398    6.0238   28.6477 N   0  0  0  0  0  0  0  0  0  0  0  0
   12.5923    7.4838   28.5679 C   0  0  2  0  0  0  0  0  0  0  0  0
   12.3704    7.9576   27.1922 C   0  0  0  0  0  0  0  0  0  0  0  0
   12.7434    7.2722   26.2311 O   0  0  0  0  0  0  0  0  0  0  0  0
   13.9925    7.7415   29.0171 C   0  0  2  0  0  0  0  0  0  0  0  0
   14.3218    9.1006   28.9067 O   0  0  0  0  0  0  0  0  0  0  0  0
   14.9647    6.8714   28.2827 C   0  0  0  0  0  0  0  0  0  0  0  0
   11.7053    9.2096   26.8617 N   0  0  0  0  0  0  0  0  0  0  0  0
   11.5253    9.5961   25.5083 C   0  0  2  0  0  0  0  0  0  0  0  0
   12.2982   10.6650   24.9677 C   0  0  0  0  0  0  0  0  0  0  0  0
   12.5051   11.6595   25.7984 O   0  0  0  0  0  0  0  0  0  0  0  0
   10.0310   10.1005   25.3670 C   0  0  2  0  0  0  0  0  0  0  0  0
    9.8925   11.0449   26.3726 O   0  0  0  0  0  0  0  0  0  0  0  0
    9.1717    8.9229   25.6777 C   0  0  0  0  0  0  0  0  0  0  0  0
   12.9135   10.8950   23.7006 N   0  0  0  0  0  0  0  0  0  0  0  0
   13.7957   12.0250   23.4546 C   0  0  2  0  0  0  0  0  0  0  0  0
   13.1286   13.3339   23.6789 C   0  0  0  0  0  0  0  0  0  0  0  0
   13.7039   14.5688   23.5735 O   0  0  0  0  0  0  0  0  0  0  0  0
   14.2393   11.8770   22.0302 C   0  0  0  0  0  0  0  0  0  0  0  0
   13.1187   11.0807   21.3831 C   0  0  0  0  0  0  0  0  0  0  0  0
   12.7630   10.1148   22.5056 C   0  0  0  0  0  0  0  0  0  0  0  0
   11.8928   13.2617   24.0034 O   0  0  0  0  0  0  0  0  0  0  0  0
  2  1  1  1
  2  3  1  0
  2  5  1  0
  3  4  2  0
  3  9  1  0
  5  6  1  0
  6  7  1  0
  7  8  1  0
  9 10  1  0
 10 11  1  0
 10 13  1  1
 11 12  2  0
 11 14  1  0
 14 15  1  0
 15 16  1  0
 15 18  1  1
 16 17  2  0
 16 22  1  0
 18 19  1  0
 19 20  2  0
 19 21  1  0
 23 22  1  1
 23 24  1  0
 23 26  1  0
 24 25  2  0
 24 29  1  0
 26 27  1  0
 26 28  1  6
 30 29  1  6
 30 31  1  0
 30 33  1  0
 31 32  2  0
 31 36  1  0
 33 34  1  0
 33 35  1  6
 37 36  1  1
 37 38  1  0
 37 40  1  0
 38 39  2  0
 38 43  1  0
 40 41  1  0
 40 42  1  1
 43 44  1  0
 43 49  1  0
 44 45  1  6
 44 47  1  0
 45 46  1  0
 45 50  2  0
 47 48  1  0
 48 49  1  0
M  CHG  1   1   1
M  END
$$$$
