
     RDKit          3D

 50 50  0  0  0  0  0  0  0  0999 V2000
   16.7317   11.5863   23.8613 N   0  0  0  0  0  4  0  0  0  0  0  0
   17.7829   10.9961   24.5888 C   0  0  2  0  0  0  0  0  0  0  0  0
   17.5218    9.5810   24.9966 C   0  0  0  0  0  0  0  0  0  0  0  0
   18.3080    9.0759   25.8043 O   0  0  0  0  0  0  0  0  0  0  0  0
   18.2532   11.7502   25.7709 C   0  0  0  0  0  0  0  0  0  0  0  0
   17.9860   11.1698   27.0929 C   0  0  0  0  0  0  0  0  0  0  0  0
   18.5016    9.8404   27.4656 C   0  0  0  0  0  0  0  0  0  0  0  0
   18.0618    9.3912   28.8548 C   0  0  0  0  0  0  0  0  0  0  0  0
   16.4460    8.7958   24.5173 N   0  0  0  0  0  0  0  0  0  0  0  0
   16.0614    7.5110   25.1009 C   0  0  2  0  0  0  0  0  0  0  0  0
   14.6352    7.4423   25.3966 C   0  0  0  0  0  0  0  0  0  0  0  0
   13.9680    8.4907   25.5253 O   0  0  0  0  0  0  0  0  0  0  0  0
   16.9651    7.2299   26.2695 C   0  0  0  0  0  0  0  0  0  0  0  0
   13.9567    6.1999   25.5477 N   0  0  0  0  0  0  0  0  0  0  0  0
   12.5273    6.1580   25.8260 C   0  0  2  0  0  0  0  0  0  0  0  0
   12.3356    5.5077   27.1625 C   0  0  0  0  0  0  0  0  0  0  0  0
   12.8894    4.4355   27.4217 O   0  0  0  0  0  0  0  0  0  0  0  0
   11.7262    5.4538   24.7865 C   0  0  0  0  0  0  0  0  0  0  0  0
   12.5960    5.1682   23.6179 C   0  0  0  0  0  0  0  0  0  0  0  0
   13.2231    6.1296   23.0614 O   0  0  0  0  0  0  0  0  0  0  0  0
   12.7813    3.9087   23.0750 O   0  0  0  0  0  0  0  0  0  0  0  0
   11.5314    6.0973   28.1593 N   0  0  0  0  0  0  0  0  0  0  0  0
   10.8662    5.5308   29.2585 C   0  0  2  0  0  0  0  0  0  0  0  0
   10.2410    4.2195   28.9837 C   0  0  0  0  0  0  0  0  0  0  0  0
    9.4963    4.1074   27.9207 O   0  0  0  0  0  0  0  0  0  0  0  0
    9.8370    6.4082   29.9196 C   0  0  2  0  0  0  0  0  0  0  0  0
    9.4204    5.7456   31.0728 O   0  0  0  0  0  0  0  0  0  0  0  0
    8.6215    6.6626   29.0784 C   0  0  0  0  0  0  0  0  0  0  0  0
   10.3878    3.0728   29.7859 N   0  0  0  0  0  0  0  0  0  0  0  0
    9.6021    1.8357   29.5538 C   0  0  2  0  0  0  0  0  0  0  0  0
    8.3637    1.8705   30.3484 C   0  0  0  0  0  0  0  0  0  0  0  0
    8.3469    2.4382   31.4485 O   0  0  0  0  0  0  0  0  0  0  0  0
   10.4543    0.6653   29.9182 C   0  0  2  0  0  0  0  0  0  0  0  0
   10.7370    0.6480   31.2922 O   0  0  0  0  0  0  0  0  0  0  0  0
   11.7024    0.6271   29.0923 C   0  0  0  0  0  0  0  0  0  0  0  0
    7.1045    1.2815   29.9164 N   0  0  0  0  0  0  0  0  0  0  0  0
    5.9927    1.2284   30.7964 C   0  0  2  0  0  0  0  0  0  0  0  0
    5.5637   -0.0254   31.3215 C   0  0  0  0  0  0  0  0  0  0  0  0
    5.8833   -1.0616   30.5824 O   0  0  0  0  0  0  0  0  0  0  0  0
    4.7364    1.7487   29.9850 C   0  0  2  0  0  0  0  0  0  0  0  0
    4.2579    0.6209   29.3357 O   0  0  0  0  0  0  0  0  0  0  0  0
    5.2706    2.7067   28.9757 C   0  0  0  0  0  0  0  0  0  0  0  0
    4.8549   -0.4116   32.4986 N   0  0  0  0  0  0  0  0  0  0  0  0
    4.5286   -1.7979   32.7942 C   0  0  2  0  0  0  0  0  0  0  0  0
    3.6834   -2.4252   31.7449 C   0  0  0  0  0  0  0  0  0  0  0  0
    3.0911   -1.7899   30.6901 O   0  0  0  0  0  0  0  0  0  0  0  0
    3.8209   -1.7642   34.1153 C   0  0  0  0  0  0  0  0  0  0  0  0
    3.2305   -0.3653   34.1739 C   0  0  0  0  0  0  0  0  0  0  0  0
    4.3450    0.4476   33.5287 C   0  0  0  0  0  0  0  0  0  0  0  0
    3.5117   -3.6868   31.8725 O   0  0  0  0  0  0  0  0  0  0  0  0
  2  1  1  1
  2  3  1  0
  2  5  1  0
  3  4  2  0
  3  9  1  0
  5  6  1  0
  6  7  1  0
  7  8  1  0
  9 10  1  0
 10 11  1  0
 10 13  1  1
 11 12  2  0
 11 14  1  0
 14 15  1  0
 15 16  1  0
 15 18  1  6
 16 17  2  0
 16 22  1  0
 18 19  1  0
 19 20  2  0
 19 21  1  0
 23 22  1  6
 23 24  1  0
 23 26  1  0
 24 25  2  0
 24 29  1  0
 26 27  1  0
 26 28  1  6
 30 29  1  1
 30 31  1  0
 30 33  1  0
 31 32  2  0
 31 36  1  0
 33 34  1  0
 33 35  1  6
 37 36  1  6
 37 38  1  0
 37 40  1  0
 38 39  2  0
 38 43  1  0
 40 41  1  0
 40 42  1  6
 43 44  1  0
 43 49  1  0
 44 45  1  6
 44 47  1  0
 45 46  1  0
 45 50  2  0
 47 48  1  0
 48 49  1  0
M  CHG  1   1   1
M  END
$$$$
