
     RDKit          3D

 50 50  0  0  0  0  0  0  0  0999 V2000
   13.8025    5.6429   27.9269 N   0  0  0  0  0  4  0  0  0  0  0  0
   14.0575    6.9082   27.3641 C   0  0  2  0  0  0  0  0  0  0  0  0
   13.0604    7.3273   26.3310 C   0  0  0  0  0  0  0  0  0  0  0  0
   13.4371    8.1480   25.4884 O   0  0  0  0  0  0  0  0  0  0  0  0
   15.4173    7.1102   26.8188 C   0  0  0  0  0  0  0  0  0  0  0  0
   15.7231    8.4222   26.2346 C   0  0  0  0  0  0  0  0  0  0  0  0
   16.0158    9.5907   27.0837 C   0  0  0  0  0  0  0  0  0  0  0  0
   17.1494    9.3472   28.0740 C   0  0  0  0  0  0  0  0  0  0  0  0
   11.7295    6.8498   26.2636 N   0  0  0  0  0  0  0  0  0  0  0  0
   11.3161    5.7276   25.4217 C   0  0  2  0  0  0  0  0  0  0  0  0
   11.1098    4.5058   26.1904 C   0  0  0  0  0  0  0  0  0  0  0  0
   10.5275    3.5284   25.6742 O   0  0  0  0  0  0  0  0  0  0  0  0
   12.2904    5.6030   24.2831 C   0  0  0  0  0  0  0  0  0  0  0  0
   11.5561    4.3788   27.5362 N   0  0  0  0  0  0  0  0  0  0  0  0
   11.4843    3.0996   28.2299 C   0  0  2  0  0  0  0  0  0  0  0  0
   10.7565    3.3150   29.5221 C   0  0  0  0  0  0  0  0  0  0  0  0
   11.3442    3.1876   30.5999 O   0  0  0  0  0  0  0  0  0  0  0  0
   12.8101    2.4687   28.4798 C   0  0  0  0  0  0  0  0  0  0  0  0
   12.6024    1.0636   28.9112 C   0  0  0  0  0  0  0  0  0  0  0  0
   12.2136    0.2023   28.0544 O   0  0  0  0  0  0  0  0  0  0  0  0
   12.8036    0.6082   30.2026 O   0  0  0  0  0  0  0  0  0  0  0  0
    9.3933    3.6740   29.5479 N   0  0  0  0  0  0  0  0  0  0  0  0
    8.7287    4.7137   30.2180 C   0  0  2  0  0  0  0  0  0  0  0  0
    7.4300    4.3266   30.8092 C   0  0  0  0  0  0  0  0  0  0  0  0
    7.2330    4.5790   32.0719 O   0  0  0  0  0  0  0  0  0  0  0  0
    8.5206    5.9737   29.4211 C   0  0  2  0  0  0  0  0  0  0  0  0
    9.7697    6.3571   28.9359 O   0  0  0  0  0  0  0  0  0  0  0  0
    7.9742    7.1184   30.2217 C   0  0  0  0  0  0  0  0  0  0  0  0
    6.3806    3.7018   30.1102 N   0  0  0  0  0  0  0  0  0  0  0  0
    4.9970    3.6422   30.6428 C   0  0  2  0  0  0  0  0  0  0  0  0
    4.1251    2.9265   29.6972 C   0  0  0  0  0  0  0  0  0  0  0  0
    4.1159    3.2415   28.5000 O   0  0  0  0  0  0  0  0  0  0  0  0
    4.5243    5.0393   30.8741 C   0  0  2  0  0  0  0  0  0  0  0  0
    4.4340    5.7534   29.6700 O   0  0  0  0  0  0  0  0  0  0  0  0
    5.3865    5.7430   31.8756 C   0  0  0  0  0  0  0  0  0  0  0  0
    3.2525    1.8234   30.0724 N   0  0  0  0  0  0  0  0  0  0  0  0
    2.5012    1.1302   29.0883 C   0  0  2  0  0  0  0  0  0  0  0  0
    1.2765    1.6828   28.6122 C   0  0  0  0  0  0  0  0  0  0  0  0
    0.5322    2.2344   29.5415 O   0  0  0  0  0  0  0  0  0  0  0  0
    2.0695   -0.2531   29.7265 C   0  0  2  0  0  0  0  0  0  0  0  0
    1.2472   -0.8289   28.7701 O   0  0  0  0  0  0  0  0  0  0  0  0
    1.2589    0.0879   30.9299 C   0  0  0  0  0  0  0  0  0  0  0  0
    0.6713    1.7758   27.3229 N   0  0  0  0  0  0  0  0  0  0  0  0
   -0.5018    2.5973   27.0684 C   0  0  2  0  0  0  0  0  0  0  0  0
   -1.6716    2.1993   27.8941 C   0  0  0  0  0  0  0  0  0  0  0  0
   -2.9202    2.7532   27.8562 O   0  0  0  0  0  0  0  0  0  0  0  0
   -0.7876    2.4354   25.6056 C   0  0  0  0  0  0  0  0  0  0  0  0
   -0.1891    1.0803   25.2678 C   0  0  0  0  0  0  0  0  0  0  0  0
    1.0711    1.0979   26.1229 C   0  0  0  0  0  0  0  0  0  0  0  0
   -1.4535    1.2407   28.7132 O   0  0  0  0  0  0  0  0  0  0  0  0
  2  1  1  6
  2  3  1  0
  2  5  1  0
  3  4  2  0
  3  9  1  0
  5  6  1  0
  6  7  1  0
  7  8  1  0
  9 10  1  0
 10 11  1  0
 10 13  1  6
 11 12  2  0
 11 14  1  0
 14 15  1  0
 15 16  1  0
 15 18  1  1
 16 17  2  0
 16 22  1  0
 18 19  1  0
 19 20  2  0
 19 21  1  0
 23 22  1  6
 23 24  1  0
 23 26  1  0
 24 25  2  0
 24 29  1  0
 26 27  1  0
 26 28  1  1
 30 29  1  6
 30 31  1  0
 30 33  1  0
 31 32  2  0
 31 36  1  0
 33 34  1  0
 33 35  1  1
 37 36  1  1
 37 38  1  0
 37 40  1  0
 38 39  2  0
 38 43  1  0
 40 41  1  0
 40 42  1  1
 43 44  1  0
 43 49  1  0
 44 45  1  1
 44 47  1  0
 45 46  1  0
 45 50  2  0
 47 48  1  0
 48 49  1  0
M  CHG  1   1   1
M  END
$$$$
