
     RDKit          3D

 50 50  0  0  0  0  0  0  0  0999 V2000
   15.5752   11.0099   25.6261 N   0  0  0  0  0  4  0  0  0  0  0  0
   15.1956   10.1520   26.6762 C   0  0  2  0  0  0  0  0  0  0  0  0
   14.9505    8.7394   26.2501 C   0  0  0  0  0  0  0  0  0  0  0  0
   14.7277    8.5459   25.0508 O   0  0  0  0  0  0  0  0  0  0  0  0
   14.0519   10.6038   27.4978 C   0  0  0  0  0  0  0  0  0  0  0  0
   14.1105   11.9640   28.0477 C   0  0  0  0  0  0  0  0  0  0  0  0
   12.9738   12.5426   28.7862 C   0  0  0  0  0  0  0  0  0  0  0  0
   13.2350   13.9618   29.2791 C   0  0  0  0  0  0  0  0  0  0  0  0
   14.9550    7.6274   27.1260 N   0  0  0  0  0  0  0  0  0  0  0  0
   14.6842    6.2571   26.6925 C   0  0  2  0  0  0  0  0  0  0  0  0
   13.2621    6.0148   26.4800 C   0  0  0  0  0  0  0  0  0  0  0  0
   12.6021    6.7618   25.7268 O   0  0  0  0  0  0  0  0  0  0  0  0
   15.3509    5.3133   27.6548 C   0  0  0  0  0  0  0  0  0  0  0  0
   12.5799    4.9359   27.1103 N   0  0  0  0  0  0  0  0  0  0  0  0
   11.3854    4.3552   26.5115 C   0  0  2  0  0  0  0  0  0  0  0  0
   10.9985    3.1557   27.3223 C   0  0  0  0  0  0  0  0  0  0  0  0
   11.3977    2.0315   27.0060 O   0  0  0  0  0  0  0  0  0  0  0  0
   11.5436    3.9836   25.0779 C   0  0  0  0  0  0  0  0  0  0  0  0
   10.2323    3.5320   24.5486 C   0  0  0  0  0  0  0  0  0  0  0  0
    9.5532    4.3241   23.8147 O   0  0  0  0  0  0  0  0  0  0  0  0
    9.6792    2.2881   24.7977 O   0  0  0  0  0  0  0  0  0  0  0  0
   10.1812    3.2726   28.4652 N   0  0  0  0  0  0  0  0  0  0  0  0
    9.7358    2.3049   29.3801 C   0  0  2  0  0  0  0  0  0  0  0  0
    8.4822    1.6261   28.9882 C   0  0  0  0  0  0  0  0  0  0  0  0
    8.0596    0.6440   29.7325 O   0  0  0  0  0  0  0  0  0  0  0  0
    9.5866    2.7737   30.8028 C   0  0  2  0  0  0  0  0  0  0  0  0
    8.6250    3.7826   30.7982 O   0  0  0  0  0  0  0  0  0  0  0  0
   10.8419    3.3461   31.3911 C   0  0  0  0  0  0  0  0  0  0  0  0
    7.7023    1.9594   27.8653 N   0  0  0  0  0  0  0  0  0  0  0  0
    6.4559    1.2319   27.5202 C   0  0  2  0  0  0  0  0  0  0  0  0
    5.9246    0.5518   28.7125 C   0  0  0  0  0  0  0  0  0  0  0  0
    5.9863   -0.6813   28.8036 O   0  0  0  0  0  0  0  0  0  0  0  0
    6.7677    0.2617   26.4292 C   0  0  2  0  0  0  0  0  0  0  0  0
    7.3501   -0.9086   26.9381 O   0  0  0  0  0  0  0  0  0  0  0  0
    7.6185    0.8927   25.3712 C   0  0  0  0  0  0  0  0  0  0  0  0
    5.3251    1.2449   29.8434 N   0  0  0  0  0  0  0  0  0  0  0  0
    4.6940    0.5163   30.8847 C   0  0  2  0  0  0  0  0  0  0  0  0
    3.4571   -0.1474   30.6366 C   0  0  0  0  0  0  0  0  0  0  0  0
    2.7224    0.4058   29.7006 O   0  0  0  0  0  0  0  0  0  0  0  0
    4.3438    1.5544   32.0280 C   0  0  2  0  0  0  0  0  0  0  0  0
    4.2505    2.7705   31.3685 O   0  0  0  0  0  0  0  0  0  0  0  0
    5.5264    1.5772   32.9349 C   0  0  0  0  0  0  0  0  0  0  0  0
    2.8312   -1.3059   31.1872 N   0  0  0  0  0  0  0  0  0  0  0  0
    1.5361   -1.7853   30.7304 C   0  0  2  0  0  0  0  0  0  0  0  0
    0.4567   -0.7789   30.9060 C   0  0  0  0  0  0  0  0  0  0  0  0
   -0.7417   -0.9724   31.5333 O   0  0  0  0  0  0  0  0  0  0  0  0
    1.2654   -3.0202   31.5362 C   0  0  0  0  0  0  0  0  0  0  0  0
    2.0755   -2.8097   32.8043 C   0  0  0  0  0  0  0  0  0  0  0  0
    3.3245   -2.1424   32.2437 C   0  0  0  0  0  0  0  0  0  0  0  0
    0.7057    0.3728   30.4069 O   0  0  0  0  0  0  0  0  0  0  0  0
  2  1  1  6
  2  3  1  0
  2  5  1  0
  3  4  2  0
  3  9  1  0
  5  6  1  0
  6  7  1  0
  7  8  1  0
  9 10  1  0
 10 11  1  0
 10 13  1  1
 11 12  2  0
 11 14  1  0
 14 15  1  0
 15 16  1  0
 15 18  1  6
 16 17  2  0
 16 22  1  0
 18 19  1  0
 19 20  2  0
 19 21  1  0
 23 22  1  6
 23 24  1  0
 23 26  1  0
 24 25  2  0
 24 29  1  0
 26 27  1  0
 26 28  1  6
 30 29  1  1
 30 31  1  0
 30 33  1  0
 31 32  2  0
 31 36  1  0
 33 34  1  0
 33 35  1  6
 37 36  1  6
 37 38  1  0
 37 40  1  0
 38 39  2  0
 38 43  1  0
 40 41  1  0
 40 42  1  1
 43 44  1  0
 43 49  1  0
 44 45  1  1
 44 47  1  0
 45 46  1  0
 45 50  2  0
 47 48  1  0
 48 49  1  0
M  CHG  1   1   1
M  END
$$$$
