
     RDKit          3D

 50 50  0  0  0  0  0  0  0  0999 V2000
   19.6018    8.2510   22.5032 N   0  0  0  0  0  4  0  0  0  0  0  0
   19.9908    7.1297   23.2608 C   0  0  2  0  0  0  0  0  0  0  0  0
   19.1170    6.8616   24.4446 C   0  0  0  0  0  0  0  0  0  0  0  0
   19.0701    5.6977   24.8551 O   0  0  0  0  0  0  0  0  0  0  0  0
   21.4030    7.1053   23.6997 C   0  0  0  0  0  0  0  0  0  0  0  0
   21.8411    5.9570   24.5031 C   0  0  0  0  0  0  0  0  0  0  0  0
   23.2351    5.8306   24.9644 C   0  0  0  0  0  0  0  0  0  0  0  0
   23.9137    4.5507   24.4885 C   0  0  0  0  0  0  0  0  0  0  0  0
   18.3489    7.8462   25.1113 N   0  0  0  0  0  0  0  0  0  0  0  0
   17.4965    7.5608   26.2650 C   0  0  2  0  0  0  0  0  0  0  0  0
   16.0785    7.5919   25.9266 C   0  0  0  0  0  0  0  0  0  0  0  0
   15.6991    8.1040   24.8520 O   0  0  0  0  0  0  0  0  0  0  0  0
   17.8993    8.4723   27.3911 C   0  0  0  0  0  0  0  0  0  0  0  0
   15.0862    7.0491   26.7911 N   0  0  0  0  0  0  0  0  0  0  0  0
   13.7249    6.8290   26.3210 C   0  0  2  0  0  0  0  0  0  0  0  0
   13.0121    5.9964   27.3431 C   0  0  0  0  0  0  0  0  0  0  0  0
   13.4553    4.8919   27.6699 O   0  0  0  0  0  0  0  0  0  0  0  0
   13.6416    6.1876   24.9794 C   0  0  0  0  0  0  0  0  0  0  0  0
   13.1211    7.1769   24.0027 C   0  0  0  0  0  0  0  0  0  0  0  0
   13.0514    8.4050   24.3405 O   0  0  0  0  0  0  0  0  0  0  0  0
   12.6964    6.8591   22.7244 O   0  0  0  0  0  0  0  0  0  0  0  0
   11.8288    6.4468   27.9637 N   0  0  0  0  0  0  0  0  0  0  0  0
   11.0621    5.8862   28.9979 C   0  0  2  0  0  0  0  0  0  0  0  0
   10.3552    4.6416   28.6275 C   0  0  0  0  0  0  0  0  0  0  0  0
    9.9782    4.4974   27.3889 O   0  0  0  0  0  0  0  0  0  0  0  0
   10.0675    6.8116   29.6463 C   0  0  2  0  0  0  0  0  0  0  0  0
    9.2466    7.2996   28.6311 O   0  0  0  0  0  0  0  0  0  0  0  0
   10.6895    7.9911   30.3330 C   0  0  0  0  0  0  0  0  0  0  0  0
   10.0545    3.5912   29.5143 N   0  0  0  0  0  0  0  0  0  0  0  0
    9.1868    2.4509   29.1290 C   0  0  2  0  0  0  0  0  0  0  0  0
    7.7909    2.7341   29.4997 C   0  0  0  0  0  0  0  0  0  0  0  0
    7.5407    3.4375   30.4872 O   0  0  0  0  0  0  0  0  0  0  0  0
    9.6967    1.2242   29.8104 C   0  0  2  0  0  0  0  0  0  0  0  0
    9.7255    1.3888   31.2032 O   0  0  0  0  0  0  0  0  0  0  0  0
   11.0333    0.8211   29.2694 C   0  0  0  0  0  0  0  0  0  0  0  0
    6.6382    2.2466   28.7564 N   0  0  0  0  0  0  0  0  0  0  0  0
    5.3218    2.4743   29.2345 C   0  0  2  0  0  0  0  0  0  0  0  0
    4.5547    1.3863   29.7443 C   0  0  0  0  0  0  0  0  0  0  0  0
    4.7457    0.2479   29.1200 O   0  0  0  0  0  0  0  0  0  0  0  0
    4.4686    2.9965   28.0070 C   0  0  2  0  0  0  0  0  0  0  0  0
    3.2242    3.2770   28.5505 O   0  0  0  0  0  0  0  0  0  0  0  0
    4.3474    1.8412   27.0732 C   0  0  0  0  0  0  0  0  0  0  0  0
    3.6112    1.2568   30.8073 N   0  0  0  0  0  0  0  0  0  0  0  0
    3.1434   -0.0356   31.2832 C   0  0  2  0  0  0  0  0  0  0  0  0
    2.4732   -0.8303   30.2212 C   0  0  0  0  0  0  0  0  0  0  0  0
    2.4785   -2.1912   30.0978 O   0  0  0  0  0  0  0  0  0  0  0  0
    2.2015    0.2747   32.4074 C   0  0  0  0  0  0  0  0  0  0  0  0
    1.7049    1.6746   32.0875 C   0  0  0  0  0  0  0  0  0  0  0  0
    2.9732    2.3142   31.5382 C   0  0  0  0  0  0  0  0  0  0  0  0
    1.8379   -0.1408   29.3503 O   0  0  0  0  0  0  0  0  0  0  0  0
  2  1  1  1
  2  3  1  0
  2  5  1  0
  3  4  2  0
  3  9  1  0
  5  6  1  0
  6  7  1  0
  7  8  1  0
  9 10  1  0
 10 11  1  0
 10 13  1  1
 11 12  2  0
 11 14  1  0
 14 15  1  0
 15 16  1  0
 15 18  1  6
 16 17  2  0
 16 22  1  0
 18 19  1  0
 19 20  2  0
 19 21  1  0
 23 22  1  6
 23 24  1  0
 23 26  1  0
 24 25  2  0
 24 29  1  0
 26 27  1  0
 26 28  1  6
 30 29  1  1
 30 31  1  0
 30 33  1  0
 31 32  2  0
 31 36  1  0
 33 34  1  0
 33 35  1  6
 37 36  1  6
 37 38  1  0
 37 40  1  0
 38 39  2  0
 38 43  1  0
 40 41  1  0
 40 42  1  6
 43 44  1  0
 43 49  1  0
 44 45  1  6
 44 47  1  0
 45 46  1  0
 45 50  2  0
 47 48  1  0
 48 49  1  0
M  CHG  1   1   1
M  END
$$$$
