
     RDKit          3D

 50 50  0  0  0  0  0  0  0  0999 V2000
   16.8057   11.9846   23.5394 N   0  0  0  0  0  4  0  0  0  0  0  0
   17.1761   11.0082   24.4838 C   0  0  2  0  0  0  0  0  0  0  0  0
   16.1521    9.9369   24.6858 C   0  0  0  0  0  0  0  0  0  0  0  0
   16.4911    8.9560   25.3553 O   0  0  0  0  0  0  0  0  0  0  0  0
   17.5965   11.5167   25.8074 C   0  0  0  0  0  0  0  0  0  0  0  0
   18.9519   12.0704   25.9193 C   0  0  0  0  0  0  0  0  0  0  0  0
   19.4610   12.6005   27.1967 C   0  0  0  0  0  0  0  0  0  0  0  0
   20.4607   11.6727   27.8786 C   0  0  0  0  0  0  0  0  0  0  0  0
   14.8381    9.9771   24.1609 N   0  0  0  0  0  0  0  0  0  0  0  0
   14.0347    8.7824   23.9031 C   0  0  2  0  0  0  0  0  0  0  0  0
   13.6019    8.1306   25.1336 C   0  0  0  0  0  0  0  0  0  0  0  0
   12.3877    8.0747   25.4225 O   0  0  0  0  0  0  0  0  0  0  0  0
   14.7898    7.8982   22.9495 C   0  0  0  0  0  0  0  0  0  0  0  0
   14.5286    7.5413   26.0395 N   0  0  0  0  0  0  0  0  0  0  0  0
   14.0736    6.6569   27.1041 C   0  0  2  0  0  0  0  0  0  0  0  0
   12.6521    6.2800   26.8157 C   0  0  0  0  0  0  0  0  0  0  0  0
   11.8662    7.1109   26.3518 O   0  0  0  0  0  0  0  0  0  0  0  0
   14.1891    7.2403   28.4696 C   0  0  0  0  0  0  0  0  0  0  0  0
   15.6235    7.4637   28.7795 C   0  0  0  0  0  0  0  0  0  0  0  0
   16.0691    7.1330   29.9281 O   0  0  0  0  0  0  0  0  0  0  0  0
   16.5337    8.0163   27.8955 O   0  0  0  0  0  0  0  0  0  0  0  0
   12.1737    4.9754   27.0551 N   0  0  0  0  0  0  0  0  0  0  0  0
   10.8694    4.4975   27.2602 C   0  0  2  0  0  0  0  0  0  0  0  0
   10.6287    3.9408   28.6086 C   0  0  0  0  0  0  0  0  0  0  0  0
   11.4318    4.2976   29.5702 O   0  0  0  0  0  0  0  0  0  0  0  0
   10.3754    3.4982   26.2486 C   0  0  2  0  0  0  0  0  0  0  0  0
   11.2591    2.4208   26.2785 O   0  0  0  0  0  0  0  0  0  0  0  0
   10.3427    4.0191   24.8425 C   0  0  0  0  0  0  0  0  0  0  0  0
    9.5919    3.0484   28.9387 N   0  0  0  0  0  0  0  0  0  0  0  0
    8.9666    3.0208   30.2840 C   0  0  2  0  0  0  0  0  0  0  0  0
    7.8405    2.0731   30.2953 C   0  0  0  0  0  0  0  0  0  0  0  0
    7.3763    1.6469   29.2297 O   0  0  0  0  0  0  0  0  0  0  0  0
    8.5211    4.4053   30.6211 C   0  0  2  0  0  0  0  0  0  0  0  0
    7.6001    4.8884   29.6797 O   0  0  0  0  0  0  0  0  0  0  0  0
    9.6908    5.3263   30.7792 C   0  0  0  0  0  0  0  0  0  0  0  0
    7.2181    1.5657   31.5094 N   0  0  0  0  0  0  0  0  0  0  0  0
    6.3006    0.4847   31.4529 C   0  0  2  0  0  0  0  0  0  0  0  0
    5.6584    0.0371   32.6442 C   0  0  0  0  0  0  0  0  0  0  0  0
    6.4753   -0.4310   33.5583 O   0  0  0  0  0  0  0  0  0  0  0  0
    7.1110   -0.7834   30.9604 C   0  0  2  0  0  0  0  0  0  0  0  0
    8.1567   -0.2541   30.2194 O   0  0  0  0  0  0  0  0  0  0  0  0
    6.1927   -1.5271   30.0521 C   0  0  0  0  0  0  0  0  0  0  0  0
    4.2982   -0.0104   33.0737 N   0  0  0  0  0  0  0  0  0  0  0  0
    3.9222   -0.3245   34.4432 C   0  0  2  0  0  0  0  0  0  0  0  0
    4.3948   -1.6657   34.8752 C   0  0  0  0  0  0  0  0  0  0  0  0
    4.9087   -2.6446   34.0723 O   0  0  0  0  0  0  0  0  0  0  0  0
    2.4257   -0.2394   34.4715 C   0  0  0  0  0  0  0  0  0  0  0  0
    2.0203   -0.5174   33.0338 C   0  0  0  0  0  0  0  0  0  0  0  0
    3.1255    0.2057   32.2753 C   0  0  0  0  0  0  0  0  0  0  0  0
    4.2950   -1.8951   36.1302 O   0  0  0  0  0  0  0  0  0  0  0  0
  2  1  1  6
  2  3  1  0
  2  5  1  0
  3  4  2  0
  3  9  1  0
  5  6  1  0
  6  7  1  0
  7  8  1  0
  9 10  1  0
 10 11  1  0
 10 13  1  6
 11 12  2  0
 11 14  1  0
 14 15  1  0
 15 16  1  0
 15 18  1  1
 16 17  2  0
 16 22  1  0
 18 19  1  0
 19 20  2  0
 19 21  1  0
 23 22  1  6
 23 24  1  0
 23 26  1  0
 24 25  2  0
 24 29  1  0
 26 27  1  0
 26 28  1  6
 30 29  1  6
 30 31  1  0
 30 33  1  0
 31 32  2  0
 31 36  1  0
 33 34  1  0
 33 35  1  6
 37 36  1  1
 37 38  1  0
 37 40  1  0
 38 39  2  0
 38 43  1  0
 40 41  1  0
 40 42  1  6
 43 44  1  0
 43 49  1  0
 44 45  1  6
 44 47  1  0
 45 46  1  0
 45 50  2  0
 47 48  1  0
 48 49  1  0
M  CHG  1   1   1
M  END
$$$$
