
     RDKit          3D

 50 50  0  0  0  0  0  0  0  0999 V2000
   19.9404    9.0741   23.4180 N   0  0  0  0  0  4  0  0  0  0  0  0
   18.6414    8.5518   23.5682 C   0  0  2  0  0  0  0  0  0  0  0  0
   18.1077    8.6385   24.9627 C   0  0  0  0  0  0  0  0  0  0  0  0
   18.9181    8.8963   25.8585 O   0  0  0  0  0  0  0  0  0  0  0  0
   18.4371    7.1751   23.0680 C   0  0  0  0  0  0  0  0  0  0  0  0
   18.7316    6.9199   21.6523 C   0  0  0  0  0  0  0  0  0  0  0  0
   17.7180    7.1419   20.6057 C   0  0  0  0  0  0  0  0  0  0  0  0
   18.0810    8.2685   19.6444 C   0  0  0  0  0  0  0  0  0  0  0  0
   16.7504    8.4425   25.3135 N   0  0  0  0  0  0  0  0  0  0  0  0
   16.2303    8.6352   26.6668 C   0  0  2  0  0  0  0  0  0  0  0  0
   15.3610    7.5423   27.0864 C   0  0  0  0  0  0  0  0  0  0  0  0
   14.8307    7.5587   28.2174 O   0  0  0  0  0  0  0  0  0  0  0  0
   15.6121   10.0036   26.7484 C   0  0  0  0  0  0  0  0  0  0  0  0
   15.0857    6.4317   26.2393 N   0  0  0  0  0  0  0  0  0  0  0  0
   13.7150    6.0688   25.9047 C   0  0  2  0  0  0  0  0  0  0  0  0
   13.2080    5.1458   26.9711 C   0  0  0  0  0  0  0  0  0  0  0  0
   13.8297    4.1186   27.2569 O   0  0  0  0  0  0  0  0  0  0  0  0
   13.5625    5.4434   24.5616 C   0  0  0  0  0  0  0  0  0  0  0  0
   12.1405    5.0661   24.3633 C   0  0  0  0  0  0  0  0  0  0  0  0
   11.2470    5.6075   25.0952 O   0  0  0  0  0  0  0  0  0  0  0  0
   11.7023    4.1505   23.4226 O   0  0  0  0  0  0  0  0  0  0  0  0
   12.0212    5.4222   27.6804 N   0  0  0  0  0  0  0  0  0  0  0  0
   11.5160    4.8816   28.8737 C   0  0  2  0  0  0  0  0  0  0  0  0
   10.3389    4.0048   28.6960 C   0  0  0  0  0  0  0  0  0  0  0  0
    9.4626    4.3331   27.7897 O   0  0  0  0  0  0  0  0  0  0  0  0
   11.1956    5.8780   29.9557 C   0  0  2  0  0  0  0  0  0  0  0  0
   10.0956    6.6128   29.5169 O   0  0  0  0  0  0  0  0  0  0  0  0
   12.3044    6.8472   30.2399 C   0  0  0  0  0  0  0  0  0  0  0  0
   10.0876    2.8336   29.4344 N   0  0  0  0  0  0  0  0  0  0  0  0
    8.8553    2.0280   29.2500 C   0  0  2  0  0  0  0  0  0  0  0  0
    7.8060    2.4973   30.1693 C   0  0  0  0  0  0  0  0  0  0  0  0
    8.1064    2.9057   31.2987 O   0  0  0  0  0  0  0  0  0  0  0  0
    9.1937    0.5940   29.4910 C   0  0  2  0  0  0  0  0  0  0  0  0
   10.3081    0.1989   28.7361 O   0  0  0  0  0  0  0  0  0  0  0  0
    8.0110   -0.2898   29.2426 C   0  0  0  0  0  0  0  0  0  0  0  0
    6.3900    2.5358   29.8337 N   0  0  0  0  0  0  0  0  0  0  0  0
    5.4295    2.9313   30.8004 C   0  0  2  0  0  0  0  0  0  0  0  0
    4.2084    2.2063   30.9241 C   0  0  0  0  0  0  0  0  0  0  0  0
    3.5595    2.0393   29.7958 O   0  0  0  0  0  0  0  0  0  0  0  0
    4.9634    4.3950   30.4160 C   0  0  2  0  0  0  0  0  0  0  0  0
    4.0296    4.7224   31.3874 O   0  0  0  0  0  0  0  0  0  0  0  0
    4.2782    4.2723   29.0980 C   0  0  0  0  0  0  0  0  0  0  0  0
    3.5248    1.6054   32.0234 N   0  0  0  0  0  0  0  0  0  0  0  0
    2.2914    0.8521   31.8585 C   0  0  2  0  0  0  0  0  0  0  0  0
    1.1977    1.6641   31.2641 C   0  0  0  0  0  0  0  0  0  0  0  0
    0.9816    3.0000   31.4528 O   0  0  0  0  0  0  0  0  0  0  0  0
    1.9313    0.3777   33.2343 C   0  0  0  0  0  0  0  0  0  0  0  0
    2.5898    1.3944   34.1515 C   0  0  0  0  0  0  0  0  0  0  0  0
    3.8942    1.6534   33.4092 C   0  0  0  0  0  0  0  0  0  0  0  0
    0.3950    1.0167   30.5065 O   0  0  0  0  0  0  0  0  0  0  0  0
  2  1  1  1
  2  3  1  0
  2  5  1  0
  3  4  2  0
  3  9  1  0
  5  6  1  0
  6  7  1  0
  7  8  1  0
  9 10  1  0
 10 11  1  0
 10 13  1  6
 11 12  2  0
 11 14  1  0
 14 15  1  0
 15 16  1  0
 15 18  1  6
 16 17  2  0
 16 22  1  0
 18 19  1  0
 19 20  2  0
 19 21  1  0
 23 22  1  6
 23 24  1  0
 23 26  1  0
 24 25  2  0
 24 29  1  0
 26 27  1  0
 26 28  1  6
 30 29  1  1
 30 31  1  0
 30 33  1  0
 31 32  2  0
 31 36  1  0
 33 34  1  0
 33 35  1  6
 37 36  1  6
 37 38  1  0
 37 40  1  0
 38 39  2  0
 38 43  1  0
 40 41  1  0
 40 42  1  6
 43 44  1  0
 43 49  1  0
 44 45  1  1
 44 47  1  0
 45 46  1  0
 45 50  2  0
 47 48  1  0
 48 49  1  0
M  CHG  1   1   1
M  END
$$$$
