
     RDKit          3D

 50 50  0  0  0  0  0  0  0  0999 V2000
   15.2723    8.5198   27.3114 N   0  0  0  0  0  4  0  0  0  0  0  0
   15.5195    7.1353   27.2440 C   0  0  2  0  0  0  0  0  0  0  0  0
   14.5326    6.3030   27.9991 C   0  0  0  0  0  0  0  0  0  0  0  0
   14.5457    5.0864   27.7863 O   0  0  0  0  0  0  0  0  0  0  0  0
   16.8846    6.7042   27.6155 C   0  0  0  0  0  0  0  0  0  0  0  0
   17.1742    5.2653   27.5717 C   0  0  0  0  0  0  0  0  0  0  0  0
   18.4294    4.7184   28.1170 C   0  0  0  0  0  0  0  0  0  0  0  0
   18.4727    3.1942   28.1175 C   0  0  0  0  0  0  0  0  0  0  0  0
   13.5957    6.8181   28.9268 N   0  0  0  0  0  0  0  0  0  0  0  0
   12.1740    6.4749   28.9135 C   0  0  2  0  0  0  0  0  0  0  0  0
   11.9521    5.0419   28.7603 C   0  0  0  0  0  0  0  0  0  0  0  0
   11.9619    4.5216   27.6245 O   0  0  0  0  0  0  0  0  0  0  0  0
   11.4865    7.3356   27.8900 C   0  0  0  0  0  0  0  0  0  0  0  0
   11.7198    4.1923   29.8787 N   0  0  0  0  0  0  0  0  0  0  0  0
   11.3280    2.8016   29.6921 C   0  0  2  0  0  0  0  0  0  0  0  0
    9.8935    2.7798   29.2587 C   0  0  0  0  0  0  0  0  0  0  0  0
    9.0216    3.3080   29.9545 O   0  0  0  0  0  0  0  0  0  0  0  0
   11.5186    1.9494   30.8986 C   0  0  0  0  0  0  0  0  0  0  0  0
   11.2439    0.5355   30.5394 C   0  0  0  0  0  0  0  0  0  0  0  0
   11.4011   -0.3710   31.4229 O   0  0  0  0  0  0  0  0  0  0  0  0
   10.8206    0.1182   29.2896 O   0  0  0  0  0  0  0  0  0  0  0  0
    9.4988    2.1685   28.0510 N   0  0  0  0  0  0  0  0  0  0  0  0
    8.2566    2.1417   27.3969 C   0  0  2  0  0  0  0  0  0  0  0  0
    7.8097    3.4536   26.8821 C   0  0  0  0  0  0  0  0  0  0  0  0
    8.6862    4.2049   26.2785 O   0  0  0  0  0  0  0  0  0  0  0  0
    7.1215    1.5373   28.1795 C   0  0  2  0  0  0  0  0  0  0  0  0
    5.9451    1.8725   27.5116 O   0  0  0  0  0  0  0  0  0  0  0  0
    7.0077    2.0507   29.5842 C   0  0  0  0  0  0  0  0  0  0  0  0
    6.5014    3.9597   26.9930 N   0  0  0  0  0  0  0  0  0  0  0  0
    6.1208    5.2967   26.4742 C   0  0  2  0  0  0  0  0  0  0  0  0
    4.7270    5.5987   26.8380 C   0  0  0  0  0  0  0  0  0  0  0  0
    4.0517    4.7656   27.4566 O   0  0  0  0  0  0  0  0  0  0  0  0
    6.3128    5.2958   24.9936 C   0  0  2  0  0  0  0  0  0  0  0  0
    5.6155    4.2390   24.3894 O   0  0  0  0  0  0  0  0  0  0  0  0
    7.7667    5.2798   24.6369 C   0  0  0  0  0  0  0  0  0  0  0  0
    4.0613    6.8561   26.5300 N   0  0  0  0  0  0  0  0  0  0  0  0
    2.7152    7.0752   26.9216 C   0  0  2  0  0  0  0  0  0  0  0  0
    1.7948    7.6562   26.0010 C   0  0  0  0  0  0  0  0  0  0  0  0
    2.0786    8.8899   25.6552 O   0  0  0  0  0  0  0  0  0  0  0  0
    2.7460    8.1032   28.1256 C   0  0  2  0  0  0  0  0  0  0  0  0
    3.5305    9.1485   27.6624 O   0  0  0  0  0  0  0  0  0  0  0  0
    3.4581    7.4098   29.2362 C   0  0  0  0  0  0  0  0  0  0  0  0
    0.6135    7.1824   25.3552 N   0  0  0  0  0  0  0  0  0  0  0  0
   -0.0933    7.9616   24.3507 C   0  0  2  0  0  0  0  0  0  0  0  0
   -0.5686    9.2708   24.8693 C   0  0  0  0  0  0  0  0  0  0  0  0
   -0.3477    9.7799   26.1179 O   0  0  0  0  0  0  0  0  0  0  0  0
   -1.2402    7.0991   23.9167 C   0  0  0  0  0  0  0  0  0  0  0  0
   -1.4891    6.1983   25.1146 C   0  0  0  0  0  0  0  0  0  0  0  0
   -0.0637    5.9380   25.5836 C   0  0  0  0  0  0  0  0  0  0  0  0
   -1.2514    9.9649   24.0388 O   0  0  0  0  0  0  0  0  0  0  0  0
  2  1  1  1
  2  3  1  0
  2  5  1  0
  3  4  2  0
  3  9  1  0
  5  6  1  0
  6  7  1  0
  7  8  1  0
  9 10  1  0
 10 11  1  0
 10 13  1  6
 11 12  2  0
 11 14  1  0
 14 15  1  0
 15 16  1  0
 15 18  1  1
 16 17  2  0
 16 22  1  0
 18 19  1  0
 19 20  2  0
 19 21  1  0
 23 22  1  1
 23 24  1  0
 23 26  1  0
 24 25  2  0
 24 29  1  0
 26 27  1  0
 26 28  1  1
 30 29  1  6
 30 31  1  0
 30 33  1  0
 31 32  2  0
 31 36  1  0
 33 34  1  0
 33 35  1  1
 37 36  1  6
 37 38  1  0
 37 40  1  0
 38 39  2  0
 38 43  1  0
 40 41  1  0
 40 42  1  1
 43 44  1  0
 43 49  1  0
 44 45  1  1
 44 47  1  0
 45 46  1  0
 45 50  2  0
 47 48  1  0
 48 49  1  0
M  CHG  1   1   1
M  END
$$$$
