
     RDKit          3D

 28 32  0  0  0  0  0  0  0  0999 V2000
  -17.4264  -16.0717    1.5873 C   0  0  0  0  0  0  0  0  0  0  0  0
  -12.7457  -18.8217    2.6015 C   0  0  0  0  0  0  0  0  0  0  0  0
  -15.7447  -25.3395   -1.0122 C   0  0  0  0  0  0  0  0  0  0  0  0
  -16.3878  -23.7465    1.0929 N   0  0  0  0  0  0  0  0  0  0  0  0
  -14.7181  -17.8347    3.7835 C   0  0  0  0  0  0  0  0  0  0  0  0
  -13.9225  -19.9519   -1.6719 C   0  0  0  0  0  0  0  0  0  0  0  0
  -15.2300  -23.5288    0.4430 C   0  0  0  0  0  0  0  0  0  0  0  0
  -17.2157  -24.7336    0.7115 C   0  0  0  0  0  0  0  0  0  0  0  0
  -15.1201  -17.8679    4.9508 O   0  0  0  0  0  0  0  0  0  0  0  0
  -14.7819  -16.6515    3.0424 N   0  0  0  0  0  0  0  0  0  0  0  0
  -15.4980  -15.4702    3.3047 C   0  0  0  0  0  0  0  0  0  0  0  0
  -16.8618  -15.3393    2.7572 C   0  0  1  0  0  0  0  0  0  0  0  0
  -16.9884  -14.6561    1.3901 C   0  0  2  0  0  0  0  0  0  0  0  0
  -18.0730  -13.6387    1.1712 C   0  0  0  0  0  0  0  0  0  0  0  0
  -14.1479  -19.0755    3.1319 C   0  0  1  0  0  0  0  0  0  0  0  0
  -13.9262  -19.0131    1.6701 C   0  0  2  0  0  0  0  0  0  0  0  0
  -13.8478  -20.2581    0.8315 C   0  0  1  0  0  0  0  0  0  0  0  0
  -14.5079  -20.0166   -0.4083 N   0  0  0  0  0  0  0  0  0  0  0  0
  -12.5640  -20.9432    0.8065 C   0  0  2  0  0  0  0  0  0  0  0  0
  -11.5385  -20.5470   -0.1765 C   0  0  0  0  0  0  0  0  0  0  0  0
  -12.1707  -20.1522   -1.8178 S   0  0  0  0  0  0  0  0  0  0  0  0
  -14.6320  -19.7513   -2.7166 N   0  0  0  0  0  0  0  0  0  0  0  0
  -14.7279  -21.3042    1.5496 C   0  0  0  0  0  0  0  0  0  0  0  0
  -14.3515  -22.4953    0.8337 N   0  0  0  0  0  0  0  0  0  0  0  0
  -12.9329  -22.4121    0.6069 C   0  0  0  0  0  0  0  0  0  0  0  0
  -14.9524  -24.3496   -0.6012 N   0  0  0  0  0  0  0  0  0  0  0  0
  -16.9185  -25.5601   -0.3533 C   0  0  0  0  0  0  0  0  0  0  0  0
  -14.1528  -19.5796   -3.6228 H   0  0  0  0  0  0  0  0  0  0  0  0
 12  1  1  0
 13  1  1  0
 15  2  1  0
 16  2  1  1
 26  3  2  0
  3 27  1  0
  7  4  2  0
  4  8  1  0
  5  9  2  0
  5 10  1  0
 15  5  1  1
 18  6  1  0
  6 21  1  0
  6 22  2  0
 24  7  1  0
  7 26  1  0
  8 27  2  0
 10 11  1  0
 12 11  1  6
 12 13  1  0
 13 14  1  1
 16 15  1  0
 17 16  1  0
 17 18  1  0
 17 19  1  0
 17 23  1  1
 19 20  1  6
 19 25  1  0
 20 21  1  0
 23 24  1  0
 24 25  1  0
 22 28  1  0
M  END
$$$$
