
     RDKit          3D

 28 32  0  0  0  0  0  0  0  0999 V2000
  -16.2365  -12.9914    2.4199 C   0  0  0  0  0  0  0  0  0  0  0  0
  -16.7512  -19.4537    1.8473 C   0  0  0  0  0  0  0  0  0  0  0  0
  -16.6188  -25.3304   -0.9506 C   0  0  0  0  0  0  0  0  0  0  0  0
  -13.9627  -24.7920   -0.7556 N   0  0  0  0  0  0  0  0  0  0  0  0
  -15.8816  -17.2318    2.6013 C   0  0  0  0  0  0  0  0  0  0  0  0
  -14.4665  -19.7994   -1.4054 C   0  0  0  0  0  0  0  0  0  0  0  0
  -14.8397  -23.9590   -0.1663 C   0  0  0  0  0  0  0  0  0  0  0  0
  -14.3878  -25.8734   -1.4303 C   0  0  0  0  0  0  0  0  0  0  0  0
  -16.8889  -17.1245    3.3077 O   0  0  0  0  0  0  0  0  0  0  0  0
  -14.8014  -16.3603    2.7655 N   0  0  0  0  0  0  0  0  0  0  0  0
  -14.7823  -15.0436    3.2586 C   0  0  0  0  0  0  0  0  0  0  0  0
  -15.0901  -13.9406    2.3284 C   0  0  1  0  0  0  0  0  0  0  0  0
  -16.3286  -14.1179    1.4415 C   0  0  2  0  0  0  0  0  0  0  0  0
  -16.2514  -13.7543   -0.0149 C   0  0  0  0  0  0  0  0  0  0  0  0
  -15.7966  -18.3100    1.5432 C   0  0  1  0  0  0  0  0  0  0  0  0
  -15.2493  -19.6163    1.9717 C   0  0  2  0  0  0  0  0  0  0  0  0
  -14.6552  -20.5829    0.9857 C   0  0  1  0  0  0  0  0  0  0  0  0
  -15.1738  -20.2917   -0.3094 N   0  0  0  0  0  0  0  0  0  0  0  0
  -13.2294  -20.8456    1.1138 C   0  0  2  0  0  0  0  0  0  0  0  0
  -12.2571  -19.9742    0.4281 C   0  0  0  0  0  0  0  0  0  0  0  0
  -12.7417  -19.4483   -1.2265 S   0  0  0  0  0  0  0  0  0  0  0  0
  -15.0461  -19.6010   -2.5277 N   0  0  0  0  0  0  0  0  0  0  0  0
  -15.2443  -21.9645    1.3448 C   0  0  0  0  0  0  0  0  0  0  0  0
  -14.4062  -22.8197    0.5453 N   0  0  0  0  0  0  0  0  0  0  0  0
  -13.0730  -22.2835    0.6225 C   0  0  0  0  0  0  0  0  0  0  0  0
  -16.1547  -24.2692   -0.2911 N   0  0  0  0  0  0  0  0  0  0  0  0
  -15.7295  -26.1750   -1.5479 C   0  0  0  0  0  0  0  0  0  0  0  0
  -14.6137  -18.9426   -3.2059 H   0  0  0  0  0  0  0  0  0  0  0  0
 12  1  1  0
 13  1  1  0
 15  2  1  0
 16  2  1  6
 26  3  2  0
  3 27  1  0
  7  4  2  0
  4  8  1  0
  5  9  2  0
  5 10  1  0
 15  5  1  1
 18  6  1  0
  6 21  1  0
  6 22  2  0
 24  7  1  0
  7 26  1  0
  8 27  2  0
 10 11  1  0
 12 11  1  1
 12 13  1  0
 13 14  1  6
 16 15  1  0
 17 16  1  0
 17 18  1  0
 17 19  1  0
 17 23  1  1
 19 20  1  6
 19 25  1  0
 20 21  1  0
 23 24  1  0
 24 25  1  0
 22 28  1  0
M  END
$$$$
