
     RDKit          3D

 28 32  0  0  0  0  0  0  0  0999 V2000
  -16.7548  -13.5904    1.0702 C   0  0  0  0  0  0  0  0  0  0  0  0
  -15.2022  -18.2596   -0.5829 C   0  0  0  0  0  0  0  0  0  0  0  0
   -9.5693  -22.1343   -0.8973 C   0  0  0  0  0  0  0  0  0  0  0  0
  -11.8587  -23.5976   -0.9080 N   0  0  0  0  0  0  0  0  0  0  0  0
  -14.5331  -16.1856    0.6469 C   0  0  0  0  0  0  0  0  0  0  0  0
  -13.5143  -20.8548    3.1896 C   0  0  0  0  0  0  0  0  0  0  0  0
  -11.9255  -22.2884   -0.6047 C   0  0  0  0  0  0  0  0  0  0  0  0
  -10.6823  -24.1766   -1.2014 C   0  0  0  0  0  0  0  0  0  0  0  0
  -14.7568  -15.3193   -0.2045 O   0  0  0  0  0  0  0  0  0  0  0  0
  -14.6622  -15.8954    2.0080 N   0  0  0  0  0  0  0  0  0  0  0  0
  -14.9070  -14.6634    2.6399 C   0  0  0  0  0  0  0  0  0  0  0  0
  -16.1974  -13.9919    2.3937 C   0  0  1  0  0  0  0  0  0  0  0  0
  -16.1320  -12.5334    1.9243 C   0  0  2  0  0  0  0  0  0  0  0  0
  -17.0629  -11.5208    2.5304 C   0  0  0  0  0  0  0  0  0  0  0  0
  -14.1144  -17.5794    0.2332 C   0  0  1  0  0  0  0  0  0  0  0  0
  -14.8721  -18.7023    0.8287 C   0  0  2  0  0  0  0  0  0  0  0  0
  -14.2914  -20.0860    0.9154 C   0  0  1  0  0  0  0  0  0  0  0  0
  -13.3757  -20.1301    2.0067 N   0  0  0  0  0  0  0  0  0  0  0  0
  -15.2237  -21.1918    0.7533 C   0  0  2  0  0  0  0  0  0  0  0  0
  -15.9483  -21.7199    1.9242 C   0  0  0  0  0  0  0  0  0  0  0  0
  -14.9758  -21.8204    3.4386 S   0  0  0  0  0  0  0  0  0  0  0  0
  -12.6046  -20.8290    4.0878 N   0  0  0  0  0  0  0  0  0  0  0  0
  -13.4127  -20.2524   -0.3435 C   0  0  0  0  0  0  0  0  0  0  0  0
  -13.1549  -21.6681   -0.2947 N   0  0  0  0  0  0  0  0  0  0  0  0
  -14.3787  -22.2983    0.1246 C   0  0  0  0  0  0  0  0  0  0  0  0
  -10.7565  -21.5996   -0.6124 N   0  0  0  0  0  0  0  0  0  0  0  0
   -9.5017  -23.4616   -1.2048 C   0  0  0  0  0  0  0  0  0  0  0  0
  -12.8850  -20.7165    5.0823 H   0  0  0  0  0  0  0  0  0  0  0  0
 12  1  1  0
 13  1  1  0
 15  2  1  0
 16  2  1  6
 26  3  2  0
  3 27  1  0
  7  4  2  0
  4  8  1  0
  5  9  2  0
  5 10  1  0
 15  5  1  1
 18  6  1  0
  6 21  1  0
  6 22  2  0
 24  7  1  0
  7 26  1  0
  8 27  2  0
 10 11  1  0
 12 11  1  6
 12 13  1  0
 13 14  1  1
 16 15  1  0
 17 16  1  0
 17 18  1  0
 17 19  1  0
 17 23  1  6
 19 20  1  1
 19 25  1  0
 20 21  1  0
 23 24  1  0
 24 25  1  0
 22 28  1  0
M  END
$$$$
