
     RDKit          3D

 28 32  0  0  0  0  0  0  0  0999 V2000
  -16.8948  -12.7210    2.1986 C   0  0  0  0  0  0  0  0  0  0  0  0
  -15.6478  -17.8103    0.6216 C   0  0  0  0  0  0  0  0  0  0  0  0
  -17.5565  -24.9690    0.3143 C   0  0  0  0  0  0  0  0  0  0  0  0
  -14.8593  -24.6553    0.2178 N   0  0  0  0  0  0  0  0  0  0  0  0
  -14.8158  -16.6253    2.6625 C   0  0  0  0  0  0  0  0  0  0  0  0
  -14.2522  -20.1199   -1.4312 C   0  0  0  0  0  0  0  0  0  0  0  0
  -15.6122  -23.6577    0.7160 C   0  0  0  0  0  0  0  0  0  0  0  0
  -15.4264  -25.7896   -0.2258 C   0  0  0  0  0  0  0  0  0  0  0  0
  -13.9080  -15.9729    3.1874 O   0  0  0  0  0  0  0  0  0  0  0  0
  -16.1480  -16.4118    3.0273 N   0  0  0  0  0  0  0  0  0  0  0  0
  -16.9809  -15.3098    2.7648 C   0  0  0  0  0  0  0  0  0  0  0  0
  -16.4104  -13.9543    2.8828 C   0  0  1  0  0  0  0  0  0  0  0  0
  -15.6860  -13.4061    1.6473 C   0  0  2  0  0  0  0  0  0  0  0  0
  -14.3720  -12.6960    1.8169 C   0  0  0  0  0  0  0  0  0  0  0  0
  -14.5037  -17.6696    1.6132 C   0  0  1  0  0  0  0  0  0  0  0  0
  -15.3327  -18.8953    1.6321 C   0  0  2  0  0  0  0  0  0  0  0  0
  -14.8519  -20.1808    1.0189 C   0  0  1  0  0  0  0  0  0  0  0  0
  -15.1585  -20.1663   -0.3728 N   0  0  0  0  0  0  0  0  0  0  0  0
  -13.5338  -20.6417    1.4293 C   0  0  2  0  0  0  0  0  0  0  0  0
  -12.3344  -20.1710    0.7119 C   0  0  0  0  0  0  0  0  0  0  0  0
  -12.5210  -20.0377   -1.0761 S   0  0  0  0  0  0  0  0  0  0  0  0
  -14.6557  -20.1359   -2.6445 N   0  0  0  0  0  0  0  0  0  0  0  0
  -15.7504  -21.2895    1.6091 C   0  0  0  0  0  0  0  0  0  0  0  0
  -15.0288  -22.4611    1.1853 N   0  0  0  0  0  0  0  0  0  0  0  0
  -13.6291  -22.1635    1.3365 C   0  0  0  0  0  0  0  0  0  0  0  0
  -16.9535  -23.8606    0.7436 N   0  0  0  0  0  0  0  0  0  0  0  0
  -16.7930  -25.9803   -0.1908 C   0  0  0  0  0  0  0  0  0  0  0  0
  -14.2879  -19.4223   -3.3047 H   0  0  0  0  0  0  0  0  0  0  0  0
 12  1  1  0
 13  1  1  0
 15  2  1  0
 16  2  1  6
 26  3  2  0
  3 27  1  0
  7  4  2  0
  4  8  1  0
  5  9  2  0
  5 10  1  0
 15  5  1  1
 18  6  1  0
  6 21  1  0
  6 22  2  0
 24  7  1  0
  7 26  1  0
  8 27  2  0
 10 11  1  0
 12 11  1  6
 12 13  1  0
 13 14  1  1
 16 15  1  0
 17 16  1  0
 17 18  1  0
 17 19  1  0
 17 23  1  1
 19 20  1  6
 19 25  1  0
 20 21  1  0
 23 24  1  0
 24 25  1  0
 22 28  1  0
M  END
$$$$
