
     RDKit          3D

 28 32  0  0  0  0  0  0  0  0999 V2000
  -13.1892  -14.7754    3.9630 C   0  0  0  0  0  0  0  0  0  0  0  0
  -16.8318  -18.9277    1.2294 C   0  0  0  0  0  0  0  0  0  0  0  0
  -16.2919  -25.6212   -0.4928 C   0  0  0  0  0  0  0  0  0  0  0  0
  -13.7430  -24.6844   -0.4055 N   0  0  0  0  0  0  0  0  0  0  0  0
  -15.9606  -17.1454    2.7546 C   0  0  0  0  0  0  0  0  0  0  0  0
  -14.4469  -19.8955   -1.3110 C   0  0  0  0  0  0  0  0  0  0  0  0
  -14.7170  -23.9750    0.1930 C   0  0  0  0  0  0  0  0  0  0  0  0
  -14.0205  -25.8373   -1.0371 C   0  0  0  0  0  0  0  0  0  0  0  0
  -16.3310  -17.5881    3.8464 O   0  0  0  0  0  0  0  0  0  0  0  0
  -15.8431  -15.7682    2.5481 N   0  0  0  0  0  0  0  0  0  0  0  0
  -15.7974  -14.7241    3.4888 C   0  0  0  0  0  0  0  0  0  0  0  0
  -14.6164  -14.6213    4.3671 C   0  0  1  0  0  0  0  0  0  0  0  0
  -13.8570  -15.9234    4.6492 C   0  0  2  0  0  0  0  0  0  0  0  0
  -13.4065  -16.2260    6.0509 C   0  0  0  0  0  0  0  0  0  0  0  0
  -15.6265  -18.0861    1.6176 C   0  0  1  0  0  0  0  0  0  0  0  0
  -15.6321  -19.5323    1.9315 C   0  0  2  0  0  0  0  0  0  0  0  0
  -14.8697  -20.5225    1.0962 C   0  0  1  0  0  0  0  0  0  0  0  0
  -15.2483  -20.3574   -0.2678 N   0  0  0  0  0  0  0  0  0  0  0  0
  -13.4560  -20.6785    1.4048 C   0  0  2  0  0  0  0  0  0  0  0  0
  -12.4628  -19.7930    0.7690 C   0  0  0  0  0  0  0  0  0  0  0  0
  -12.7791  -19.4170   -0.9653 S   0  0  0  0  0  0  0  0  0  0  0  0
  -14.9007  -19.8151   -2.5037 N   0  0  0  0  0  0  0  0  0  0  0  0
  -15.4144  -21.9125    1.4911 C   0  0  0  0  0  0  0  0  0  0  0  0
  -14.4386  -22.7623    0.8597 N   0  0  0  0  0  0  0  0  0  0  0  0
  -13.1579  -22.1332    1.0462 C   0  0  0  0  0  0  0  0  0  0  0  0
  -15.9732  -24.4827    0.1227 N   0  0  0  0  0  0  0  0  0  0  0  0
  -15.3044  -26.3404   -1.0996 C   0  0  0  0  0  0  0  0  0  0  0  0
  -14.4894  -19.1130   -3.1504 H   0  0  0  0  0  0  0  0  0  0  0  0
 12  1  1  0
 13  1  1  0
 15  2  1  0
 16  2  1  6
 26  3  2  0
  3 27  1  0
  7  4  2  0
  4  8  1  0
  5  9  2  0
  5 10  1  0
 15  5  1  1
 18  6  1  0
  6 21  1  0
  6 22  2  0
 24  7  1  0
  7 26  1  0
  8 27  2  0
 10 11  1  0
 12 11  1  6
 12 13  1  0
 13 14  1  1
 16 15  1  0
 17 16  1  0
 17 18  1  0
 17 19  1  0
 17 23  1  1
 19 20  1  6
 19 25  1  0
 20 21  1  0
 23 24  1  0
 24 25  1  0
 22 28  1  0
M  END
$$$$
