
     RDKit          3D

 28 32  0  0  0  0  0  0  0  0999 V2000
  -16.3020  -11.7403    1.8418 C   0  0  0  0  0  0  0  0  0  0  0  0
  -16.0917  -17.9091    1.0974 C   0  0  0  0  0  0  0  0  0  0  0  0
  -15.5951  -25.5021   -0.5142 C   0  0  0  0  0  0  0  0  0  0  0  0
  -16.9560  -23.4965    0.7140 N   0  0  0  0  0  0  0  0  0  0  0  0
  -14.5587  -16.2365    2.1528 C   0  0  0  0  0  0  0  0  0  0  0  0
  -14.2943  -19.7879   -1.4961 C   0  0  0  0  0  0  0  0  0  0  0  0
  -15.6228  -23.3849    0.5712 C   0  0  0  0  0  0  0  0  0  0  0  0
  -17.6083  -24.5793    0.2587 C   0  0  0  0  0  0  0  0  0  0  0  0
  -14.7837  -16.4188    3.3534 O   0  0  0  0  0  0  0  0  0  0  0  0
  -14.1991  -14.9713    1.6804 N   0  0  0  0  0  0  0  0  0  0  0  0
  -14.5483  -13.7011    2.1722 C   0  0  0  0  0  0  0  0  0  0  0  0
  -15.8913  -13.1736    1.8642 C   0  0  1  0  0  0  0  0  0  0  0  0
  -16.6721  -12.5625    3.0341 C   0  0  2  0  0  0  0  0  0  0  0  0
  -18.1293  -12.8915    3.2006 C   0  0  0  0  0  0  0  0  0  0  0  0
  -14.6679  -17.3804    1.1685 C   0  0  1  0  0  0  0  0  0  0  0  0
  -14.9752  -18.7130    1.7337 C   0  0  2  0  0  0  0  0  0  0  0  0
  -14.6362  -19.9784    0.9966 C   0  0  1  0  0  0  0  0  0  0  0  0
  -15.0857  -19.8574   -0.3504 N   0  0  0  0  0  0  0  0  0  0  0  0
  -13.3110  -20.5315    1.2336 C   0  0  2  0  0  0  0  0  0  0  0  0
  -12.1684  -20.0765    0.4198 C   0  0  0  0  0  0  0  0  0  0  0  0
  -12.5335  -19.8172   -1.3262 S   0  0  0  0  0  0  0  0  0  0  0  0
  -14.8231  -19.7041   -2.6572 N   0  0  0  0  0  0  0  0  0  0  0  0
  -15.5300  -21.0762    1.6135 C   0  0  0  0  0  0  0  0  0  0  0  0
  -14.9255  -22.2527    1.0450 N   0  0  0  0  0  0  0  0  0  0  0  0
  -13.5028  -22.0372    1.0612 C   0  0  0  0  0  0  0  0  0  0  0  0
  -14.9871  -24.4113   -0.0482 N   0  0  0  0  0  0  0  0  0  0  0  0
  -16.9467  -25.6151   -0.3694 C   0  0  0  0  0  0  0  0  0  0  0  0
  -14.2756  -19.2714   -3.4275 H   0  0  0  0  0  0  0  0  0  0  0  0
 12  1  1  0
 13  1  1  0
 15  2  1  0
 16  2  1  6
 26  3  2  0
  3 27  1  0
  7  4  2  0
  4  8  1  0
  5  9  2  0
  5 10  1  0
 15  5  1  1
 18  6  1  0
  6 21  1  0
  6 22  2  0
 24  7  1  0
  7 26  1  0
  8 27  2  0
 10 11  1  0
 12 11  1  1
 12 13  1  0
 13 14  1  6
 16 15  1  0
 17 16  1  0
 17 18  1  0
 17 19  1  0
 17 23  1  1
 19 20  1  6
 19 25  1  0
 20 21  1  0
 23 24  1  0
 24 25  1  0
 22 28  1  0
M  END
$$$$
