
     RDKit          3D

 28 32  0  0  0  0  0  0  0  0999 V2000
  -16.6242  -13.6429    3.8271 C   0  0  0  0  0  0  0  0  0  0  0  0
  -15.9866  -19.3671    2.1478 C   0  0  0  0  0  0  0  0  0  0  0  0
  -15.0051  -25.8263   -1.5209 C   0  0  0  0  0  0  0  0  0  0  0  0
  -16.2953  -24.2700    0.2945 N   0  0  0  0  0  0  0  0  0  0  0  0
  -14.9503  -17.1038    2.4030 C   0  0  0  0  0  0  0  0  0  0  0  0
  -14.0821  -20.0064   -1.4946 C   0  0  0  0  0  0  0  0  0  0  0  0
  -15.0132  -23.9927   -0.0047 C   0  0  0  0  0  0  0  0  0  0  0  0
  -16.9317  -25.2979   -0.2915 C   0  0  0  0  0  0  0  0  0  0  0  0
  -15.0432  -17.2322    3.6278 O   0  0  0  0  0  0  0  0  0  0  0  0
  -14.6771  -15.8554    1.8372 N   0  0  0  0  0  0  0  0  0  0  0  0
  -14.5650  -14.5984    2.4573 C   0  0  0  0  0  0  0  0  0  0  0  0
  -15.7815  -13.7766    2.6042 C   0  0  1  0  0  0  0  0  0  0  0  0
  -17.1089  -14.5342    2.7292 C   0  0  2  0  0  0  0  0  0  0  0  0
  -18.3056  -14.0592    1.9535 C   0  0  0  0  0  0  0  0  0  0  0  0
  -15.1308  -18.2965    1.4897 C   0  0  1  0  0  0  0  0  0  0  0  0
  -14.5005  -19.5633    1.9229 C   0  0  2  0  0  0  0  0  0  0  0  0
  -14.1692  -20.6536    0.9426 C   0  0  1  0  0  0  0  0  0  0  0  0
  -14.7535  -20.3298   -0.3163 N   0  0  0  0  0  0  0  0  0  0  0  0
  -12.8001  -21.1473    0.9602 C   0  0  2  0  0  0  0  0  0  0  0  0
  -11.7675  -20.4792    0.1464 C   0  0  0  0  0  0  0  0  0  0  0  0
  -12.3140  -19.9438   -1.4858 S   0  0  0  0  0  0  0  0  0  0  0  0
  -14.7251  -19.7571   -2.5713 N   0  0  0  0  0  0  0  0  0  0  0  0
  -14.9402  -21.9014    1.4258 C   0  0  0  0  0  0  0  0  0  0  0  0
  -14.3332  -22.9157    0.6039 N   0  0  0  0  0  0  0  0  0  0  0  0
  -12.9289  -22.6090    0.5356 C   0  0  0  0  0  0  0  0  0  0  0  0
  -14.4114  -24.7973   -0.9165 N   0  0  0  0  0  0  0  0  0  0  0  0
  -16.3050  -26.1073   -1.2174 C   0  0  0  0  0  0  0  0  0  0  0  0
  -14.3474  -19.0449   -3.2274 H   0  0  0  0  0  0  0  0  0  0  0  0
 12  1  1  0
 13  1  1  0
 15  2  1  0
 16  2  1  1
 26  3  2  0
  3 27  1  0
  7  4  2  0
  4  8  1  0
  5  9  2  0
  5 10  1  0
 15  5  1  1
 18  6  1  0
  6 21  1  0
  6 22  2  0
 24  7  1  0
  7 26  1  0
  8 27  2  0
 10 11  1  0
 12 11  1  1
 12 13  1  0
 13 14  1  6
 16 15  1  0
 17 16  1  0
 17 18  1  0
 17 19  1  0
 17 23  1  1
 19 20  1  6
 19 25  1  0
 20 21  1  0
 23 24  1  0
 24 25  1  0
 22 28  1  0
M  END
$$$$
