
     RDKit          3D

 28 32  0  0  0  0  0  0  0  0999 V2000
  -17.0202  -13.7052    1.5047 C   0  0  0  0  0  0  0  0  0  0  0  0
  -15.8182  -17.9648    0.7532 C   0  0  0  0  0  0  0  0  0  0  0  0
  -14.9439  -25.7639   -0.8254 C   0  0  0  0  0  0  0  0  0  0  0  0
  -16.6241  -24.0011    0.3794 N   0  0  0  0  0  0  0  0  0  0  0  0
  -14.9159  -16.7834    2.7662 C   0  0  0  0  0  0  0  0  0  0  0  0
  -14.1588  -19.9408   -1.4875 C   0  0  0  0  0  0  0  0  0  0  0  0
  -15.3082  -23.7233    0.3425 C   0  0  0  0  0  0  0  0  0  0  0  0
  -17.1046  -25.1298   -0.1687 C   0  0  0  0  0  0  0  0  0  0  0  0
  -15.3669  -17.2014    3.8372 O   0  0  0  0  0  0  0  0  0  0  0  0
  -14.6868  -15.4180    2.5752 N   0  0  0  0  0  0  0  0  0  0  0  0
  -15.1735  -14.3194    3.3053 C   0  0  0  0  0  0  0  0  0  0  0  0
  -16.1039  -13.3890    2.6378 C   0  0  1  0  0  0  0  0  0  0  0  0
  -15.7496  -12.9776    1.2036 C   0  0  2  0  0  0  0  0  0  0  0  0
  -15.8780  -11.5364    0.7964 C   0  0  0  0  0  0  0  0  0  0  0  0
  -14.6022  -17.7420    1.6384 C   0  0  1  0  0  0  0  0  0  0  0  0
  -15.2922  -19.0507    1.6707 C   0  0  2  0  0  0  0  0  0  0  0  0
  -14.7429  -20.2487    0.9479 C   0  0  1  0  0  0  0  0  0  0  0  0
  -15.0562  -20.1303   -0.4374 N   0  0  0  0  0  0  0  0  0  0  0  0
  -13.3990  -20.6687    1.3168 C   0  0  2  0  0  0  0  0  0  0  0  0
  -12.2313  -20.0704    0.6436 C   0  0  0  0  0  0  0  0  0  0  0  0
  -12.4333  -19.7925   -1.1259 S   0  0  0  0  0  0  0  0  0  0  0  0
  -14.5664  -19.8738   -2.6976 N   0  0  0  0  0  0  0  0  0  0  0  0
  -15.5750  -21.4534    1.4388 C   0  0  0  0  0  0  0  0  0  0  0  0
  -14.7907  -22.5412    0.9146 N   0  0  0  0  0  0  0  0  0  0  0  0
  -13.4092  -22.1795    1.0916 C   0  0  0  0  0  0  0  0  0  0  0  0
  -14.5092  -24.6332   -0.2696 N   0  0  0  0  0  0  0  0  0  0  0  0
  -16.2780  -26.0455   -0.7879 C   0  0  0  0  0  0  0  0  0  0  0  0
  -13.8832  -19.6375   -3.4444 H   0  0  0  0  0  0  0  0  0  0  0  0
 12  1  1  0
 13  1  1  0
 15  2  1  0
 16  2  1  6
 26  3  2  0
  3 27  1  0
  7  4  2  0
  4  8  1  0
  5  9  2  0
  5 10  1  0
 15  5  1  1
 18  6  1  0
  6 21  1  0
  6 22  2  0
 24  7  1  0
  7 26  1  0
  8 27  2  0
 10 11  1  0
 12 11  1  6
 12 13  1  0
 13 14  1  1
 16 15  1  0
 17 16  1  0
 17 18  1  0
 17 19  1  0
 17 23  1  1
 19 20  1  6
 19 25  1  0
 20 21  1  0
 23 24  1  0
 24 25  1  0
 22 28  1  0
M  END
$$$$
