
     RDKit          3D

 28 32  0  0  0  0  0  0  0  0999 V2000
  -15.7965  -14.6222    0.5713 C   0  0  0  0  0  0  0  0  0  0  0  0
  -15.1841  -19.7586    3.2077 C   0  0  0  0  0  0  0  0  0  0  0  0
  -15.7992  -24.7961   -1.8318 C   0  0  0  0  0  0  0  0  0  0  0  0
  -15.4537  -24.7006    0.8615 N   0  0  0  0  0  0  0  0  0  0  0  0
  -15.7039  -17.3379    2.8452 C   0  0  0  0  0  0  0  0  0  0  0  0
  -14.1150  -19.7077   -1.3882 C   0  0  0  0  0  0  0  0  0  0  0  0
  -14.9336  -23.7176    0.1042 C   0  0  0  0  0  0  0  0  0  0  0  0
  -16.1334  -25.7147    0.3004 C   0  0  0  0  0  0  0  0  0  0  0  0
  -14.7184  -16.8768    3.4296 O   0  0  0  0  0  0  0  0  0  0  0  0
  -16.8891  -16.6022    2.7598 N   0  0  0  0  0  0  0  0  0  0  0  0
  -17.0830  -15.2106    2.8137 C   0  0  0  0  0  0  0  0  0  0  0  0
  -16.8738  -14.4241    1.5831 C   0  0  1  0  0  0  0  0  0  0  0  0
  -15.6442  -13.5081    1.5563 C   0  0  2  0  0  0  0  0  0  0  0  0
  -15.7769  -12.1103    1.0195 C   0  0  0  0  0  0  0  0  0  0  0  0
  -15.6477  -18.7097    2.2094 C   0  0  1  0  0  0  0  0  0  0  0  0
  -14.3055  -19.3135    2.0555 C   0  0  2  0  0  0  0  0  0  0  0  0
  -14.0374  -20.3889    1.0401 C   0  0  1  0  0  0  0  0  0  0  0  0
  -14.7053  -20.0497   -0.1723 N   0  0  0  0  0  0  0  0  0  0  0  0
  -12.6688  -20.8777    0.9593 C   0  0  2  0  0  0  0  0  0  0  0  0
  -11.6947  -20.1946    0.0879 C   0  0  0  0  0  0  0  0  0  0  0  0
  -12.3504  -19.6387   -1.4965 S   0  0  0  0  0  0  0  0  0  0  0  0
  -14.8291  -19.4458   -2.4160 N   0  0  0  0  0  0  0  0  0  0  0  0
  -14.7709  -21.6460    1.5560 C   0  0  0  0  0  0  0  0  0  0  0  0
  -14.2174  -22.6467    0.6812 N   0  0  0  0  0  0  0  0  0  0  0  0
  -12.8217  -22.3339    0.5237 C   0  0  0  0  0  0  0  0  0  0  0  0
  -15.1319  -23.8086   -1.2349 N   0  0  0  0  0  0  0  0  0  0  0  0
  -16.3265  -25.7926   -1.0640 C   0  0  0  0  0  0  0  0  0  0  0  0
  -14.3571  -19.1373   -3.2892 H   0  0  0  0  0  0  0  0  0  0  0  0
 12  1  1  0
 13  1  1  0
 15  2  1  0
 16  2  1  1
 26  3  2  0
  3 27  1  0
  7  4  2  0
  4  8  1  0
  5  9  2  0
  5 10  1  0
 15  5  1  1
 18  6  1  0
  6 21  1  0
  6 22  2  0
 24  7  1  0
  7 26  1  0
  8 27  2  0
 10 11  1  0
 12 11  1  1
 12 13  1  0
 13 14  1  6
 16 15  1  0
 17 16  1  0
 17 18  1  0
 17 19  1  0
 17 23  1  1
 19 20  1  6
 19 25  1  0
 20 21  1  0
 23 24  1  0
 24 25  1  0
 22 28  1  0
M  END
$$$$
