
     RDKit          3D

 28 32  0  0  0  0  0  0  0  0999 V2000
  -15.4095  -12.1110    1.1254 C   0  0  0  0  0  0  0  0  0  0  0  0
  -14.8837  -18.5971    3.3941 C   0  0  0  0  0  0  0  0  0  0  0  0
  -18.0123  -23.7032    0.3644 C   0  0  0  0  0  0  0  0  0  0  0  0
  -15.4373  -23.5913   -0.4955 N   0  0  0  0  0  0  0  0  0  0  0  0
  -15.9162  -16.3782    2.8727 C   0  0  0  0  0  0  0  0  0  0  0  0
  -14.1758  -19.1213   -1.3980 C   0  0  0  0  0  0  0  0  0  0  0  0
  -15.8539  -22.7038    0.4259 C   0  0  0  0  0  0  0  0  0  0  0  0
  -16.2763  -24.5193   -0.9855 C   0  0  0  0  0  0  0  0  0  0  0  0
  -15.2136  -15.9318    3.7851 O   0  0  0  0  0  0  0  0  0  0  0  0
  -16.8129  -15.5483    2.1942 N   0  0  0  0  0  0  0  0  0  0  0  0
  -16.8180  -14.1474    2.0735 C   0  0  0  0  0  0  0  0  0  0  0  0
  -15.8915  -13.5220    1.1105 C   0  0  1  0  0  0  0  0  0  0  0  0
  -16.4919  -12.4775    0.1617 C   0  0  2  0  0  0  0  0  0  0  0  0
  -16.1189  -12.5022   -1.2942 C   0  0  0  0  0  0  0  0  0  0  0  0
  -15.8201  -17.8337    2.4710 C   0  0  1  0  0  0  0  0  0  0  0  0
  -14.5110  -18.2935    1.9566 C   0  0  2  0  0  0  0  0  0  0  0  0
  -14.3911  -19.5125    1.0854 C   0  0  1  0  0  0  0  0  0  0  0  0
  -14.8996  -19.2013   -0.2091 N   0  0  0  0  0  0  0  0  0  0  0  0
  -13.1414  -20.2531    1.1749 C   0  0  2  0  0  0  0  0  0  0  0  0
  -11.9982  -19.8710    0.3252 C   0  0  0  0  0  0  0  0  0  0  0  0
  -12.4283  -19.3946   -1.3592 S   0  0  0  0  0  0  0  0  0  0  0  0
  -14.7567  -18.8549   -2.5055 N   0  0  0  0  0  0  0  0  0  0  0  0
  -15.3872  -20.5414    1.6634 C   0  0  0  0  0  0  0  0  0  0  0  0
  -14.9827  -21.7239    0.9486 N   0  0  0  0  0  0  0  0  0  0  0  0
  -13.5455  -21.6967    0.8812 C   0  0  0  0  0  0  0  0  0  0  0  0
  -17.1475  -22.7991    0.8241 N   0  0  0  0  0  0  0  0  0  0  0  0
  -17.5898  -24.6029   -0.5698 C   0  0  0  0  0  0  0  0  0  0  0  0
  -14.1745  -18.7021   -3.3529 H   0  0  0  0  0  0  0  0  0  0  0  0
 12  1  1  0
 13  1  1  0
 15  2  1  0
 16  2  1  1
 26  3  2  0
  3 27  1  0
  7  4  2  0
  4  8  1  0
  5  9  2  0
  5 10  1  0
 15  5  1  1
 18  6  1  0
  6 21  1  0
  6 22  2  0
 24  7  1  0
  7 26  1  0
  8 27  2  0
 10 11  1  0
 12 11  1  1
 12 13  1  0
 13 14  1  6
 16 15  1  0
 17 16  1  0
 17 18  1  0
 17 19  1  0
 17 23  1  1
 19 20  1  6
 19 25  1  0
 20 21  1  0
 23 24  1  0
 24 25  1  0
 22 28  1  0
M  END
$$$$
