
     RDKit          3D

 28 32  0  0  0  0  0  0  0  0999 V2000
  -15.1379  -13.4776    3.0038 C   0  0  0  0  0  0  0  0  0  0  0  0
  -16.3450  -19.8813    2.4890 C   0  0  0  0  0  0  0  0  0  0  0  0
  -14.2908  -26.1393   -0.8845 C   0  0  0  0  0  0  0  0  0  0  0  0
  -16.0847  -24.2431   -0.1303 N   0  0  0  0  0  0  0  0  0  0  0  0
  -16.6382  -17.4367    2.0422 C   0  0  0  0  0  0  0  0  0  0  0  0
  -14.4726  -20.0036   -1.6569 C   0  0  0  0  0  0  0  0  0  0  0  0
  -14.7726  -24.0026    0.0447 C   0  0  0  0  0  0  0  0  0  0  0  0
  -16.5063  -25.3998   -0.6684 C   0  0  0  0  0  0  0  0  0  0  0  0
  -16.5909  -17.2893    3.2675 O   0  0  0  0  0  0  0  0  0  0  0  0
  -16.8982  -16.3487    1.2043 N   0  0  0  0  0  0  0  0  0  0  0  0
  -16.4138  -15.0306    1.2747 C   0  0  0  0  0  0  0  0  0  0  0  0
  -16.2193  -14.4239    2.6054 C   0  0  1  0  0  0  0  0  0  0  0  0
  -15.0076  -14.9105    3.4096 C   0  0  2  0  0  0  0  0  0  0  0  0
  -15.1669  -15.2142    4.8730 C   0  0  0  0  0  0  0  0  0  0  0  0
  -16.4153  -18.7991    1.4232 C   0  0  1  0  0  0  0  0  0  0  0  0
  -15.1183  -19.4519    1.7089 C   0  0  2  0  0  0  0  0  0  0  0  0
  -14.5596  -20.5203    0.8113 C   0  0  1  0  0  0  0  0  0  0  0  0
  -15.1321  -20.3733   -0.4856 N   0  0  0  0  0  0  0  0  0  0  0  0
  -13.1284  -20.7660    0.9088 C   0  0  2  0  0  0  0  0  0  0  0  0
  -12.1895  -19.9743    0.0925 C   0  0  0  0  0  0  0  0  0  0  0  0
  -12.7439  -19.6334   -1.5886 S   0  0  0  0  0  0  0  0  0  0  0  0
  -15.0984  -19.9301   -2.7695 N   0  0  0  0  0  0  0  0  0  0  0  0
  -15.1262  -21.8547    1.3435 C   0  0  0  0  0  0  0  0  0  0  0  0
  -14.3166  -22.7916    0.6088 N   0  0  0  0  0  0  0  0  0  0  0  0
  -12.9843  -22.2491    0.5720 C   0  0  0  0  0  0  0  0  0  0  0  0
  -13.9154  -24.9787   -0.3470 N   0  0  0  0  0  0  0  0  0  0  0  0
  -15.6211  -26.3831   -1.0618 C   0  0  0  0  0  0  0  0  0  0  0  0
  -14.6641  -19.4067   -3.5555 H   0  0  0  0  0  0  0  0  0  0  0  0
 12  1  1  0
 13  1  1  0
 15  2  1  0
 16  2  1  1
 26  3  2  0
  3 27  1  0
  7  4  2  0
  4  8  1  0
  5  9  2  0
  5 10  1  0
 15  5  1  1
 18  6  1  0
  6 21  1  0
  6 22  2  0
 24  7  1  0
  7 26  1  0
  8 27  2  0
 10 11  1  0
 12 11  1  6
 12 13  1  0
 13 14  1  1
 16 15  1  0
 17 16  1  0
 17 18  1  0
 17 19  1  0
 17 23  1  1
 19 20  1  6
 19 25  1  0
 20 21  1  0
 23 24  1  0
 24 25  1  0
 22 28  1  0
M  END
$$$$
