
     RDKit          3D

 28 32  0  0  0  0  0  0  0  0999 V2000
  -12.4729  -26.0555   -1.8932 C   0  0  0  0  0  0  0  0  0  0  0  0
  -11.8252  -20.3405    0.5925 C   0  0  0  0  0  0  0  0  0  0  0  0
  -16.0562  -14.3685    2.9392 C   0  0  0  0  0  0  0  0  0  0  0  0
  -13.7634  -15.6469    2.2385 N   0  0  0  0  0  0  0  0  0  0  0  0
  -12.0959  -22.7861    0.1371 C   0  0  0  0  0  0  0  0  0  0  0  0
  -15.1535  -19.0058   -0.9725 C   0  0  0  0  0  0  0  0  0  0  0  0
  -14.8644  -16.3781    2.4900 C   0  0  0  0  0  0  0  0  0  0  0  0
  -13.7916  -14.3068    2.3308 C   0  0  0  0  0  0  0  0  0  0  0  0
  -10.8893  -22.9493   -0.0693 O   0  0  0  0  0  0  0  0  0  0  0  0
  -12.9072  -23.8635    0.5037 N   0  0  0  0  0  0  0  0  0  0  0  0
  -12.5829  -25.2265    0.6229 C   0  0  0  0  0  0  0  0  0  0  0  0
  -12.9472  -26.1343   -0.4816 C   0  0  1  0  0  0  0  0  0  0  0  0
  -13.8448  -25.5512   -1.5798 C   0  0  2  0  0  0  0  0  0  0  0  0
  -14.9973  -26.3641   -2.0998 C   0  0  0  0  0  0  0  0  0  0  0  0
  -12.7207  -21.4152   -0.0032 C   0  0  1  0  0  0  0  0  0  0  0  0
  -13.1304  -20.7431    1.2499 C   0  0  2  0  0  0  0  0  0  0  0  0
  -14.1709  -19.6585    1.2581 C   0  0  1  0  0  0  0  0  0  0  0  0
  -14.1509  -18.9962   -0.0037 N   0  0  0  0  0  0  0  0  0  0  0  0
  -15.4620  -20.0029    1.8349 C   0  0  2  0  0  0  0  0  0  0  0  0
  -16.5039  -20.6168    0.9909 C   0  0  0  0  0  0  0  0  0  0  0  0
  -16.6221  -19.9477   -0.6787 S   0  0  0  0  0  0  0  0  0  0  0  0
  -15.0237  -18.3471   -2.0607 N   0  0  0  0  0  0  0  0  0  0  0  0
  -13.6685  -18.6019    2.2660 C   0  0  0  0  0  0  0  0  0  0  0  0
  -14.8480  -17.7865    2.3966 N   0  0  0  0  0  0  0  0  0  0  0  0
  -15.9730  -18.6837    2.4113 C   0  0  0  0  0  0  0  0  0  0  0  0
  -15.9847  -15.6954    2.8360 N   0  0  0  0  0  0  0  0  0  0  0  0
  -14.9398  -13.6272    2.6842 C   0  0  0  0  0  0  0  0  0  0  0  0
  -15.7305  -18.4756   -2.8119 H   0  0  0  0  0  0  0  0  0  0  0  0
 12  1  1  0
 13  1  1  0
 15  2  1  0
 16  2  1  6
 26  3  2  0
  3 27  1  0
  7  4  2  0
  4  8  1  0
  5  9  2  0
  5 10  1  0
 15  5  1  1
 18  6  1  0
  6 21  1  0
  6 22  2  0
 24  7  1  0
  7 26  1  0
  8 27  2  0
 10 11  1  0
 12 11  1  1
 12 13  1  0
 13 14  1  6
 16 15  1  0
 17 16  1  0
 17 18  1  0
 17 19  1  0
 17 23  1  1
 19 20  1  6
 19 25  1  0
 20 21  1  0
 23 24  1  0
 24 25  1  0
 22 28  1  0
M  END
$$$$
