
     RDKit          3D

 28 32  0  0  0  0  0  0  0  0999 V2000
  -16.3219  -13.9171    0.7597 C   0  0  0  0  0  0  0  0  0  0  0  0
  -13.9635  -18.0358    3.0741 C   0  0  0  0  0  0  0  0  0  0  0  0
  -17.0399  -23.9201   -0.6651 C   0  0  0  0  0  0  0  0  0  0  0  0
  -15.9022  -23.8480    1.8013 N   0  0  0  0  0  0  0  0  0  0  0  0
  -15.9819  -16.5573    3.0294 C   0  0  0  0  0  0  0  0  0  0  0  0
  -14.0246  -19.5877   -1.4451 C   0  0  0  0  0  0  0  0  0  0  0  0
  -15.6730  -22.8318    0.9499 C   0  0  0  0  0  0  0  0  0  0  0  0
  -16.6798  -24.8835    1.4431 C   0  0  0  0  0  0  0  0  0  0  0  0
  -17.1892  -16.3539    3.1911 O   0  0  0  0  0  0  0  0  0  0  0  0
  -15.0741  -15.4947    3.0364 N   0  0  0  0  0  0  0  0  0  0  0  0
  -15.3104  -14.1185    3.2022 C   0  0  0  0  0  0  0  0  0  0  0  0
  -15.9620  -13.3803    2.1035 C   0  0  1  0  0  0  0  0  0  0  0  0
  -15.0949  -13.0714    0.8769 C   0  0  2  0  0  0  0  0  0  0  0  0
  -15.1561  -11.7042    0.2554 C   0  0  0  0  0  0  0  0  0  0  0  0
  -15.4609  -17.9623    2.8203 C   0  0  1  0  0  0  0  0  0  0  0  0
  -14.5413  -18.1643    1.6786 C   0  0  2  0  0  0  0  0  0  0  0  0
  -14.3429  -19.5184    1.0570 C   0  0  1  0  0  0  0  0  0  0  0  0
  -14.8001  -19.4736   -0.2921 N   0  0  0  0  0  0  0  0  0  0  0  0
  -13.0762  -20.1796    1.3336 C   0  0  2  0  0  0  0  0  0  0  0  0
  -11.9072  -19.9174    0.4737 C   0  0  0  0  0  0  0  0  0  0  0  0
  -12.2731  -19.7800   -1.2860 S   0  0  0  0  0  0  0  0  0  0  0  0
  -14.5613  -19.5551   -2.6052 N   0  0  0  0  0  0  0  0  0  0  0  0
  -15.3321  -20.4602    1.7775 C   0  0  0  0  0  0  0  0  0  0  0  0
  -14.8580  -21.7382    1.3139 N   0  0  0  0  0  0  0  0  0  0  0  0
  -13.4208  -21.6674    1.3000 C   0  0  0  0  0  0  0  0  0  0  0  0
  -16.2624  -22.9123   -0.2696 N   0  0  0  0  0  0  0  0  0  0  0  0
  -17.2723  -24.9503    0.1982 C   0  0  0  0  0  0  0  0  0  0  0  0
  -14.2159  -18.8617   -3.2981 H   0  0  0  0  0  0  0  0  0  0  0  0
 12  1  1  0
 13  1  1  0
 15  2  1  0
 16  2  1  1
 26  3  2  0
  3 27  1  0
  7  4  2  0
  4  8  1  0
  5  9  2  0
  5 10  1  0
 15  5  1  6
 18  6  1  0
  6 21  1  0
  6 22  2  0
 24  7  1  0
  7 26  1  0
  8 27  2  0
 10 11  1  0
 12 11  1  1
 12 13  1  0
 13 14  1  6
 16 15  1  0
 17 16  1  0
 17 18  1  0
 17 19  1  0
 17 23  1  1
 19 20  1  6
 19 25  1  0
 20 21  1  0
 23 24  1  0
 24 25  1  0
 22 28  1  0
M  END
$$$$
