
     RDKit          3D

 28 32  0  0  0  0  0  0  0  0999 V2000
  -14.9772  -13.3985    2.7039 C   0  0  0  0  0  0  0  0  0  0  0  0
  -13.6844  -17.8260    0.6980 C   0  0  0  0  0  0  0  0  0  0  0  0
  -17.7352  -24.6570   -0.0395 C   0  0  0  0  0  0  0  0  0  0  0  0
  -15.0190  -24.7171   -0.0721 N   0  0  0  0  0  0  0  0  0  0  0  0
  -14.7672  -17.1933    2.8633 C   0  0  0  0  0  0  0  0  0  0  0  0
  -13.9338  -20.3674   -2.0761 C   0  0  0  0  0  0  0  0  0  0  0  0
  -15.6395  -23.5868    0.3120 C   0  0  0  0  0  0  0  0  0  0  0  0
  -15.7257  -25.8008   -0.4344 C   0  0  0  0  0  0  0  0  0  0  0  0
  -14.2718  -16.7372    3.8986 O   0  0  0  0  0  0  0  0  0  0  0  0
  -15.9851  -16.7049    2.3822 N   0  0  0  0  0  0  0  0  0  0  0  0
  -16.6209  -15.4778    2.6412 C   0  0  0  0  0  0  0  0  0  0  0  0
  -16.0308  -14.2483    2.0784 C   0  0  1  0  0  0  0  0  0  0  0  0
  -16.3956  -12.9321    2.7757 C   0  0  2  0  0  0  0  0  0  0  0  0
  -16.7538  -11.7316    1.9451 C   0  0  0  0  0  0  0  0  0  0  0  0
  -14.0650  -18.2911    2.0946 C   0  0  1  0  0  0  0  0  0  0  0  0
  -14.7837  -18.8445    0.9254 C   0  0  2  0  0  0  0  0  0  0  0  0
  -14.4721  -20.2117    0.3841 C   0  0  1  0  0  0  0  0  0  0  0  0
  -14.8113  -20.2439   -0.9997 N   0  0  0  0  0  0  0  0  0  0  0  0
  -13.2062  -20.7995    0.7970 C   0  0  2  0  0  0  0  0  0  0  0  0
  -11.9794  -20.5167    0.0290 C   0  0  0  0  0  0  0  0  0  0  0  0
  -12.1960  -20.4687   -1.7598 S   0  0  0  0  0  0  0  0  0  0  0  0
  -14.3681  -20.4078   -3.2781 N   0  0  0  0  0  0  0  0  0  0  0  0
  -15.4776  -21.1699    1.0589 C   0  0  0  0  0  0  0  0  0  0  0  0
  -14.9087  -22.4414    0.6949 N   0  0  0  0  0  0  0  0  0  0  0  0
  -13.4803  -22.3023    0.8006 C   0  0  0  0  0  0  0  0  0  0  0  0
  -16.9962  -23.6049    0.3120 N   0  0  0  0  0  0  0  0  0  0  0  0
  -17.1060  -25.8030   -0.4289 C   0  0  0  0  0  0  0  0  0  0  0  0
  -15.2020  -19.8403   -3.5293 H   0  0  0  0  0  0  0  0  0  0  0  0
 12  1  1  0
 13  1  1  0
 15  2  1  0
 16  2  1  6
 26  3  2  0
  3 27  1  0
  7  4  2  0
  4  8  1  0
  5  9  2  0
  5 10  1  0
 15  5  1  1
 18  6  1  0
  6 21  1  0
  6 22  2  0
 24  7  1  0
  7 26  1  0
  8 27  2  0
 10 11  1  0
 12 11  1  1
 12 13  1  0
 13 14  1  6
 16 15  1  0
 17 16  1  0
 17 18  1  0
 17 19  1  0
 17 23  1  1
 19 20  1  6
 19 25  1  0
 20 21  1  0
 23 24  1  0
 24 25  1  0
 22 28  1  0
M  END
$$$$
