
     RDKit          3D

 28 32  0  0  0  0  0  0  0  0999 V2000
  -15.7250  -12.3888    2.0491 C   0  0  0  0  0  0  0  0  0  0  0  0
  -16.5161  -18.8657    1.3783 C   0  0  0  0  0  0  0  0  0  0  0  0
  -16.6514  -25.3582   -0.5049 C   0  0  0  0  0  0  0  0  0  0  0  0
  -14.0126  -24.7148   -0.5785 N   0  0  0  0  0  0  0  0  0  0  0  0
  -15.3841  -16.9376    2.5019 C   0  0  0  0  0  0  0  0  0  0  0  0
  -14.2835  -19.8648   -1.4677 C   0  0  0  0  0  0  0  0  0  0  0  0
  -14.8626  -23.8989    0.0710 C   0  0  0  0  0  0  0  0  0  0  0  0
  -14.4558  -25.8303   -1.1823 C   0  0  0  0  0  0  0  0  0  0  0  0
  -14.6468  -16.9875    3.4914 O   0  0  0  0  0  0  0  0  0  0  0  0
  -16.3288  -15.9162    2.3694 N   0  0  0  0  0  0  0  0  0  0  0  0
  -16.4541  -14.7156    3.0905 C   0  0  0  0  0  0  0  0  0  0  0  0
  -15.4831  -13.6356    2.8306 C   0  0  1  0  0  0  0  0  0  0  0  0
  -14.9766  -13.5020    1.3893 C   0  0  2  0  0  0  0  0  0  0  0  0
  -13.5117  -13.2752    1.1400 C   0  0  0  0  0  0  0  0  0  0  0  0
  -15.2792  -17.9821    1.4122 C   0  0  1  0  0  0  0  0  0  0  0  0
  -15.1758  -19.3908    1.8534 C   0  0  2  0  0  0  0  0  0  0  0  0
  -14.5861  -20.4523    0.9674 C   0  0  1  0  0  0  0  0  0  0  0  0
  -15.0474  -20.2441   -0.3649 N   0  0  0  0  0  0  0  0  0  0  0  0
  -13.1771  -20.7559    1.1691 C   0  0  2  0  0  0  0  0  0  0  0  0
  -12.1480  -19.9766    0.4560 C   0  0  0  0  0  0  0  0  0  0  0  0
  -12.5536  -19.5638   -1.2512 S   0  0  0  0  0  0  0  0  0  0  0  0
  -14.8154  -19.7334   -2.6230 N   0  0  0  0  0  0  0  0  0  0  0  0
  -15.2412  -21.7793    1.4087 C   0  0  0  0  0  0  0  0  0  0  0  0
  -14.4099  -22.7241    0.7093 N   0  0  0  0  0  0  0  0  0  0  0  0
  -13.0602  -22.2325    0.7955 C   0  0  0  0  0  0  0  0  0  0  0  0
  -16.1700  -24.2618    0.0805 N   0  0  0  0  0  0  0  0  0  0  0  0
  -15.7895  -26.1854   -1.1634 C   0  0  0  0  0  0  0  0  0  0  0  0
  -14.2871  -19.2311   -3.3641 H   0  0  0  0  0  0  0  0  0  0  0  0
 12  1  1  0
 13  1  1  0
 15  2  1  0
 16  2  1  6
 26  3  2  0
  3 27  1  0
  7  4  2  0
  4  8  1  0
  5  9  2  0
  5 10  1  0
 15  5  1  1
 18  6  1  0
  6 21  1  0
  6 22  2  0
 24  7  1  0
  7 26  1  0
  8 27  2  0
 10 11  1  0
 12 11  1  6
 12 13  1  0
 13 14  1  1
 16 15  1  0
 17 16  1  0
 17 18  1  0
 17 19  1  0
 17 23  1  1
 19 20  1  6
 19 25  1  0
 20 21  1  0
 23 24  1  0
 24 25  1  0
 22 28  1  0
M  END
$$$$
