
     RDKit          3D

 28 32  0  0  0  0  0  0  0  0999 V2000
  -16.3914  -13.8252    0.8739 C   0  0  0  0  0  0  0  0  0  0  0  0
  -14.6155  -17.6387    0.3130 C   0  0  0  0  0  0  0  0  0  0  0  0
  -16.0193  -25.6951   -0.4940 C   0  0  0  0  0  0  0  0  0  0  0  0
  -17.3619  -23.5398    0.4728 N   0  0  0  0  0  0  0  0  0  0  0  0
  -14.5696  -16.8183    2.6766 C   0  0  0  0  0  0  0  0  0  0  0  0
  -14.1203  -20.2766   -1.8005 C   0  0  0  0  0  0  0  0  0  0  0  0
  -16.0177  -23.5023    0.4293 C   0  0  0  0  0  0  0  0  0  0  0  0
  -18.0340  -24.6222    0.0466 C   0  0  0  0  0  0  0  0  0  0  0  0
  -15.1835  -17.1171    3.7058 O   0  0  0  0  0  0  0  0  0  0  0  0
  -14.2951  -15.4816    2.3747 N   0  0  0  0  0  0  0  0  0  0  0  0
  -14.8166  -14.3099    2.9510 C   0  0  0  0  0  0  0  0  0  0  0  0
  -15.9588  -13.6502    2.2902 C   0  0  1  0  0  0  0  0  0  0  0  0
  -15.6208  -12.5948    1.2301 C   0  0  2  0  0  0  0  0  0  0  0  0
  -16.3780  -11.2964    1.2139 C   0  0  0  0  0  0  0  0  0  0  0  0
  -14.1021  -17.8944    1.7212 C   0  0  1  0  0  0  0  0  0  0  0  0
  -15.1463  -18.7793    1.1586 C   0  0  2  0  0  0  0  0  0  0  0  0
  -14.8165  -20.1438    0.6212 C   0  0  1  0  0  0  0  0  0  0  0  0
  -15.0648  -20.1547   -0.7822 N   0  0  0  0  0  0  0  0  0  0  0  0
  -13.5876  -20.7529    1.1082 C   0  0  2  0  0  0  0  0  0  0  0  0
  -12.3099  -20.4767    0.4257 C   0  0  0  0  0  0  0  0  0  0  0  0
  -12.4084  -20.4042   -1.3727 S   0  0  0  0  0  0  0  0  0  0  0  0
  -14.4755  -20.2968   -3.0286 N   0  0  0  0  0  0  0  0  0  0  0  0
  -15.8757  -21.0969    1.2164 C   0  0  0  0  0  0  0  0  0  0  0  0
  -15.2996  -22.3712    0.8739 N   0  0  0  0  0  0  0  0  0  0  0  0
  -13.8797  -22.2519    1.0745 C   0  0  0  0  0  0  0  0  0  0  0  0
  -15.3918  -24.6017   -0.0613 N   0  0  0  0  0  0  0  0  0  0  0  0
  -17.3822  -25.7330   -0.4499 C   0  0  0  0  0  0  0  0  0  0  0  0
  -13.8747  -19.8229   -3.7322 H   0  0  0  0  0  0  0  0  0  0  0  0
 12  1  1  0
 13  1  1  0
 15  2  1  0
 16  2  1  6
 26  3  2  0
  3 27  1  0
  7  4  2  0
  4  8  1  0
  5  9  2  0
  5 10  1  0
 15  5  1  1
 18  6  1  0
  6 21  1  0
  6 22  2  0
 24  7  1  0
  7 26  1  0
  8 27  2  0
 10 11  1  0
 12 11  1  6
 12 13  1  0
 13 14  1  1
 16 15  1  0
 17 16  1  0
 17 18  1  0
 17 19  1  0
 17 23  1  1
 19 20  1  6
 19 25  1  0
 20 21  1  0
 23 24  1  0
 24 25  1  0
 22 28  1  0
M  END
$$$$
