
     RDKit          3D

 16 17  0  0  0  0  0  0  0  0999 V2000
   -5.5828   -5.7773   23.3539 C   0  0  0  0  0  0  0  0  0  0  0  0
   -5.6570   -6.4129   19.8277 C   0  0  0  0  0  0  0  0  0  0  0  0
   -6.2275   -6.0176   22.1763 C   0  0  0  0  0  0  0  0  0  0  0  0
   -4.3519   -5.3468   16.1031 C   0  0  0  0  0  0  0  0  0  0  0  0
   -6.2403   -6.1385   24.5513 C   0  0  0  0  0  0  0  0  0  0  0  0
   -7.4792   -6.7094   24.5421 C   0  0  0  0  0  0  0  0  0  0  0  0
   -4.2725   -5.1791   23.4823 C   0  0  0  0  0  0  0  0  0  0  0  0
   -3.4828   -5.0623   17.1233 C   0  0  0  0  0  0  0  0  0  0  0  0
   -7.4872   -6.5987   22.1811 C   0  0  0  0  0  0  0  0  0  0  0  0
   -8.1154   -6.9452   23.3526 C   0  0  0  0  0  0  0  0  0  0  0  0
   -5.5971   -5.6660   20.9182 C   0  0  0  0  0  0  0  0  0  0  0  0
   -5.0465   -5.9759   18.5925 C   0  0  0  0  0  0  0  0  0  0  0  0
   -3.8462   -5.3824   18.3520 C   0  0  0  0  0  0  0  0  0  0  0  0
   -3.1993   -5.6889   23.1783 O   0  0  0  0  0  0  0  0  0  0  0  0
   -4.1485   -3.8620   24.0103 O   0  0  0  0  0  0  0  0  0  0  0  0
   -5.7509   -6.1091   16.9638 S   0  0  0  0  0  0  0  0  0  0  0  0
  3  1  2  0
  1  5  1  0
  1  7  1  0
  2 11  2  0
 12  2  1  0
  3  9  1  0
 11  3  1  0
  8  4  2  0
  4 16  1  0
  5  6  2  0
 10  6  1  0
  7 14  2  0
  7 15  1  0
 13  8  1  0
  9 10  2  0
 12 13  2  0
 12 16  1  0
M  END
$$$$
