
     RDKit          3D

 16 17  0  0  0  0  0  0  0  0999 V2000
   -5.6277   -6.3620   23.3009 C   0  0  0  0  0  0  0  0  0  0  0  0
   -4.4222   -6.3618   19.9417 C   0  0  0  0  0  0  0  0  0  0  0  0
   -5.0811   -6.9837   22.2170 C   0  0  0  0  0  0  0  0  0  0  0  0
   -5.8867   -5.2942   16.2773 C   0  0  0  0  0  0  0  0  0  0  0  0
   -5.3391   -6.8903   24.5793 C   0  0  0  0  0  0  0  0  0  0  0  0
   -4.5413   -7.9856   24.7363 C   0  0  0  0  0  0  0  0  0  0  0  0
   -6.4848   -5.1983   23.2526 C   0  0  0  0  0  0  0  0  0  0  0  0
   -4.5478   -5.0635   16.4540 C   0  0  0  0  0  0  0  0  0  0  0  0
   -4.2715   -8.0968   22.3908 C   0  0  0  0  0  0  0  0  0  0  0  0
   -3.9988   -8.6004   23.6395 C   0  0  0  0  0  0  0  0  0  0  0  0
   -5.3454   -6.4820   20.8819 C   0  0  0  0  0  0  0  0  0  0  0  0
   -4.7721   -5.9320   18.6067 C   0  0  0  0  0  0  0  0  0  0  0  0
   -4.0134   -5.3870   17.6177 C   0  0  0  0  0  0  0  0  0  0  0  0
   -6.1326   -4.0318   23.1142 O   0  0  0  0  0  0  0  0  0  0  0  0
   -7.8953   -5.3573   23.3727 O   0  0  0  0  0  0  0  0  0  0  0  0
   -6.3872   -6.0090   17.8640 S   0  0  0  0  0  0  0  0  0  0  0  0
  3  1  2  0
  1  5  1  0
  1  7  1  0
  2 11  2  0
 12  2  1  0
  3  9  1  0
 11  3  1  0
  8  4  2  0
  4 16  1  0
  5  6  2  0
 10  6  1  0
  7 14  2  0
  7 15  1  0
 13  8  1  0
  9 10  2  0
 12 13  2  0
 12 16  1  0
M  END
$$$$
