
     RDKit          3D

 16 17  0  0  0  0  0  0  0  0999 V2000
   -4.4002   -7.4053   22.9836 C   0  0  0  0  0  0  0  0  0  0  0  0
   -4.4040   -7.1881   19.3252 C   0  0  0  0  0  0  0  0  0  0  0  0
   -3.9114   -7.4404   21.7109 C   0  0  0  0  0  0  0  0  0  0  0  0
   -7.0745   -5.6663   16.6298 C   0  0  0  0  0  0  0  0  0  0  0  0
   -3.5241   -7.7526   24.0364 C   0  0  0  0  0  0  0  0  0  0  0  0
   -2.2299   -8.1128   23.7996 C   0  0  0  0  0  0  0  0  0  0  0  0
   -5.7505   -7.0398   23.3503 C   0  0  0  0  0  0  0  0  0  0  0  0
   -6.3905   -6.7741   16.2031 C   0  0  0  0  0  0  0  0  0  0  0  0
   -2.5931   -7.8085   21.4840 C   0  0  0  0  0  0  0  0  0  0  0  0
   -1.7517   -8.1439   22.5168 C   0  0  0  0  0  0  0  0  0  0  0  0
   -4.7686   -7.0930   20.5936 C   0  0  0  0  0  0  0  0  0  0  0  0
   -5.2966   -6.7835   18.2626 C   0  0  0  0  0  0  0  0  0  0  0  0
   -5.5122   -7.3139   17.0285 C   0  0  0  0  0  0  0  0  0  0  0  0
   -6.5645   -7.7377   23.9454 O   0  0  0  0  0  0  0  0  0  0  0  0
   -6.2463   -5.7476   23.0131 O   0  0  0  0  0  0  0  0  0  0  0  0
   -6.4149   -5.3998   18.2950 S   0  0  0  0  0  0  0  0  0  0  0  0
  3  1  2  0
  1  5  1  0
  1  7  1  0
  2 11  2  0
 12  2  1  0
  3  9  1  0
 11  3  1  0
  8  4  2  0
  4 16  1  0
  5  6  2  0
 10  6  1  0
  7 14  2  0
  7 15  1  0
 13  8  1  0
  9 10  2  0
 12 13  2  0
 12 16  1  0
M  END
$$$$
