
     RDKit          3D

 16 17  0  0  0  0  0  0  0  0999 V2000
   -5.9764   -5.6025   22.7657 C   0  0  0  0  0  0  0  0  0  0  0  0
   -4.8341   -6.5159   19.6431 C   0  0  0  0  0  0  0  0  0  0  0  0
   -6.2537   -6.2999   21.6269 C   0  0  0  0  0  0  0  0  0  0  0  0
   -4.3122   -5.3259   15.7669 C   0  0  0  0  0  0  0  0  0  0  0  0
   -6.5113   -6.0850   23.9813 C   0  0  0  0  0  0  0  0  0  0  0  0
   -7.2812   -7.2103   24.0265 C   0  0  0  0  0  0  0  0  0  0  0  0
   -5.1747   -4.4010   22.8354 C   0  0  0  0  0  0  0  0  0  0  0  0
   -3.1589   -5.4334   16.4986 C   0  0  0  0  0  0  0  0  0  0  0  0
   -7.0380   -7.4427   21.6869 C   0  0  0  0  0  0  0  0  0  0  0  0
   -7.5520   -7.9011   22.8755 C   0  0  0  0  0  0  0  0  0  0  0  0
   -5.7292   -5.8479   20.3524 C   0  0  0  0  0  0  0  0  0  0  0  0
   -4.4733   -6.0896   18.3098 C   0  0  0  0  0  0  0  0  0  0  0  0
   -3.2601   -5.8140   17.7593 C   0  0  0  0  0  0  0  0  0  0  0  0
   -3.9513   -4.3365   22.8922 O   0  0  0  0  0  0  0  0  0  0  0  0
   -5.8135   -3.1278   22.8423 O   0  0  0  0  0  0  0  0  0  0  0  0
   -5.5925   -5.7964   16.9579 S   0  0  0  0  0  0  0  0  0  0  0  0
  3  1  2  0
  1  5  1  0
  1  7  1  0
  2 11  2  0
 12  2  1  0
  3  9  1  0
 11  3  1  0
  8  4  2  0
  4 16  1  0
  5  6  2  0
 10  6  1  0
  7 14  2  0
  7 15  1  0
 13  8  1  0
  9 10  2  0
 12 13  2  0
 12 16  1  0
M  END
$$$$
