
     RDKit          3D

 16 17  0  0  0  0  0  0  0  0999 V2000
    4.3849   -5.5613   12.6278 C   0  0  0  0  0  0  0  0  0  0  0  0
    2.4465   -5.4820    9.5180 C   0  0  0  0  0  0  0  0  0  0  0  0
    3.4633   -5.9430   11.6978 C   0  0  0  0  0  0  0  0  0  0  0  0
    2.6338   -3.1685    6.1527 C   0  0  0  0  0  0  0  0  0  0  0  0
    4.5371   -6.3706   13.7761 C   0  0  0  0  0  0  0  0  0  0  0  0
    3.7924   -7.4987   13.9591 C   0  0  0  0  0  0  0  0  0  0  0  0
    5.2265   -4.3888   12.5380 C   0  0  0  0  0  0  0  0  0  0  0  0
    1.3667   -3.4388    6.5982 C   0  0  0  0  0  0  0  0  0  0  0  0
    2.7124   -7.0925   11.8962 C   0  0  0  0  0  0  0  0  0  0  0  0
    2.8703   -7.8706   13.0173 C   0  0  0  0  0  0  0  0  0  0  0  0
    3.2671   -5.1479   10.5006 C   0  0  0  0  0  0  0  0  0  0  0  0
    2.3325   -4.6621    8.3330 C   0  0  0  0  0  0  0  0  0  0  0  0
    1.2384   -4.1821    7.6824 C   0  0  0  0  0  0  0  0  0  0  0  0
    5.4175   -3.5527   13.4146 O   0  0  0  0  0  0  0  0  0  0  0  0
    5.9347   -4.1213   11.3312 O   0  0  0  0  0  0  0  0  0  0  0  0
    3.6782   -4.0283    7.3564 S   0  0  0  0  0  0  0  0  0  0  0  0
  3  1  2  0
  1  5  1  0
  1  7  1  0
  2 11  2  0
 12  2  1  0
  3  9  1  0
 11  3  1  0
  8  4  2  0
  4 16  1  0
  5  6  2  0
 10  6  1  0
  7 14  2  0
  7 15  1  0
 13  8  1  0
  9 10  2  0
 12 13  2  0
 12 16  1  0
M  END
$$$$
