
     RDKit          3D

 16 17  0  0  0  0  0  0  0  0999 V2000
   -5.3518   -5.7467   23.2647 C   0  0  0  0  0  0  0  0  0  0  0  0
   -4.8231   -6.6979   19.7667 C   0  0  0  0  0  0  0  0  0  0  0  0
   -5.1743   -6.5630   22.1866 C   0  0  0  0  0  0  0  0  0  0  0  0
   -5.4482   -4.8478   16.1752 C   0  0  0  0  0  0  0  0  0  0  0  0
   -5.3926   -6.3440   24.5446 C   0  0  0  0  0  0  0  0  0  0  0  0
   -5.2599   -7.6917   24.7088 C   0  0  0  0  0  0  0  0  0  0  0  0
   -5.5032   -4.3096   23.2086 C   0  0  0  0  0  0  0  0  0  0  0  0
   -4.2094   -5.4132   16.3260 C   0  0  0  0  0  0  0  0  0  0  0  0
   -5.0407   -7.9320   22.3677 C   0  0  0  0  0  0  0  0  0  0  0  0
   -5.0822   -8.5000   23.6178 C   0  0  0  0  0  0  0  0  0  0  0  0
   -5.1250   -6.0012   20.8503 C   0  0  0  0  0  0  0  0  0  0  0  0
   -4.8758   -6.0928   18.4550 C   0  0  0  0  0  0  0  0  0  0  0  0
   -3.9447   -6.0267   17.4652 C   0  0  0  0  0  0  0  0  0  0  0  0
   -6.5055   -3.6648   23.4975 O   0  0  0  0  0  0  0  0  0  0  0  0
   -4.4099   -3.5027   22.7811 O   0  0  0  0  0  0  0  0  0  0  0  0
   -6.2589   -5.2229   17.7504 S   0  0  0  0  0  0  0  0  0  0  0  0
  3  1  2  0
  1  5  1  0
  1  7  1  0
  2 11  2  0
 12  2  1  0
  3  9  1  0
 11  3  1  0
  8  4  2  0
  4 16  1  0
  5  6  2  0
 10  6  1  0
  7 14  2  0
  7 15  1  0
 13  8  1  0
  9 10  2  0
 12 13  2  0
 12 16  1  0
M  END
$$$$
