
     RDKit          3D

 16 17  0  0  0  0  0  0  0  0999 V2000
   -5.7925   -6.7110   24.1804 C   0  0  0  0  0  0  0  0  0  0  0  0
   -5.5093   -6.6467   20.6823 C   0  0  0  0  0  0  0  0  0  0  0  0
   -6.2885   -7.0771   22.9639 C   0  0  0  0  0  0  0  0  0  0  0  0
   -3.3025   -7.5528   17.3624 C   0  0  0  0  0  0  0  0  0  0  0  0
   -6.7099   -6.5336   25.2404 C   0  0  0  0  0  0  0  0  0  0  0  0
   -8.0498   -6.7196   25.0644 C   0  0  0  0  0  0  0  0  0  0  0  0
   -4.3957   -6.4870   24.4802 C   0  0  0  0  0  0  0  0  0  0  0  0
   -2.5901   -7.0106   18.3995 C   0  0  0  0  0  0  0  0  0  0  0  0
   -7.6534   -7.2629   22.7985 C   0  0  0  0  0  0  0  0  0  0  0  0
   -8.5346   -7.0871   23.8376 C   0  0  0  0  0  0  0  0  0  0  0  0
   -5.3901   -7.2725   21.8420 C   0  0  0  0  0  0  0  0  0  0  0  0
   -4.5867   -6.9047   19.5998 C   0  0  0  0  0  0  0  0  0  0  0  0
   -3.2460   -6.6956   19.5017 C   0  0  0  0  0  0  0  0  0  0  0  0
   -3.8356   -5.4030   24.6039 O   0  0  0  0  0  0  0  0  0  0  0  0
   -3.5272   -7.6013   24.6623 O   0  0  0  0  0  0  0  0  0  0  0  0
   -4.9907   -7.6065   18.0154 S   0  0  0  0  0  0  0  0  0  0  0  0
  3  1  2  0
  1  5  1  0
  1  7  1  0
  2 11  2  0
 12  2  1  0
  3  9  1  0
 11  3  1  0
  8  4  2  0
  4 16  1  0
  5  6  2  0
 10  6  1  0
  7 14  2  0
  7 15  1  0
 13  8  1  0
  9 10  2  0
 12 13  2  0
 12 16  1  0
M  END
$$$$
