
     RDKit          3D

 16 17  0  0  0  0  0  0  0  0999 V2000
   -5.4074   -6.6785   23.4980 C   0  0  0  0  0  0  0  0  0  0  0  0
   -4.8324   -6.9857   19.9019 C   0  0  0  0  0  0  0  0  0  0  0  0
   -4.8882   -7.1834   22.3423 C   0  0  0  0  0  0  0  0  0  0  0  0
   -6.8046   -5.5194   16.6350 C   0  0  0  0  0  0  0  0  0  0  0  0
   -4.8402   -7.1079   24.7188 C   0  0  0  0  0  0  0  0  0  0  0  0
   -3.8069   -7.9977   24.7527 C   0  0  0  0  0  0  0  0  0  0  0  0
   -6.4986   -5.7331   23.5807 C   0  0  0  0  0  0  0  0  0  0  0  0
   -6.1141   -6.6829   16.4190 C   0  0  0  0  0  0  0  0  0  0  0  0
   -3.8372   -8.0877   22.3910 C   0  0  0  0  0  0  0  0  0  0  0  0
   -3.2948   -8.4971   23.5849 C   0  0  0  0  0  0  0  0  0  0  0  0
   -5.4336   -6.7756   21.0617 C   0  0  0  0  0  0  0  0  0  0  0  0
   -5.4647   -6.6098   18.6576 C   0  0  0  0  0  0  0  0  0  0  0  0
   -5.4553   -7.2083   17.4360 C   0  0  0  0  0  0  0  0  0  0  0  0
   -6.5133   -4.6816   24.2117 O   0  0  0  0  0  0  0  0  0  0  0  0
   -7.7102   -5.9931   22.8782 O   0  0  0  0  0  0  0  0  0  0  0  0
   -6.4833   -5.1767   18.3838 S   0  0  0  0  0  0  0  0  0  0  0  0
  3  1  2  0
  1  5  1  0
  1  7  1  0
  2 11  2  0
 12  2  1  0
  3  9  1  0
 11  3  1  0
  8  4  2  0
  4 16  1  0
  5  6  2  0
 10  6  1  0
  7 14  2  0
  7 15  1  0
 13  8  1  0
  9 10  2  0
 12 13  2  0
 12 16  1  0
M  END
$$$$
