
     RDKit          3D

 16 17  0  0  0  0  0  0  0  0999 V2000
   -3.9854   -4.7793   24.1746 C   0  0  0  0  0  0  0  0  0  0  0  0
   -4.9800   -5.5159   21.0100 C   0  0  0  0  0  0  0  0  0  0  0  0
   -4.9010   -4.4566   23.2167 C   0  0  0  0  0  0  0  0  0  0  0  0
   -6.1744   -8.1774   18.1460 C   0  0  0  0  0  0  0  0  0  0  0  0
   -3.5755   -3.7613   25.0647 C   0  0  0  0  0  0  0  0  0  0  0  0
   -4.0723   -2.4939   24.9783 C   0  0  0  0  0  0  0  0  0  0  0  0
   -3.3934   -6.0858   24.3582 C   0  0  0  0  0  0  0  0  0  0  0  0
   -6.4439   -8.5558   19.4349 C   0  0  0  0  0  0  0  0  0  0  0  0
   -5.3982   -3.1637   23.1399 C   0  0  0  0  0  0  0  0  0  0  0  0
   -4.9912   -2.1832   24.0117 C   0  0  0  0  0  0  0  0  0  0  0  0
   -5.3557   -5.4642   22.2776 C   0  0  0  0  0  0  0  0  0  0  0  0
   -5.4626   -6.5589   20.1333 C   0  0  0  0  0  0  0  0  0  0  0  0
   -6.0825   -7.7384   20.4074 C   0  0  0  0  0  0  0  0  0  0  0  0
   -2.2623   -6.4319   24.0342 O   0  0  0  0  0  0  0  0  0  0  0  0
   -4.1521   -7.1224   24.9738 O   0  0  0  0  0  0  0  0  0  0  0  0
   -5.3646   -6.5715   18.3566 S   0  0  0  0  0  0  0  0  0  0  0  0
  3  1  2  0
  1  5  1  0
  1  7  1  0
  2 11  2  0
 12  2  1  0
  3  9  1  0
 11  3  1  0
  8  4  2  0
  4 16  1  0
  5  6  2  0
 10  6  1  0
  7 14  2  0
  7 15  1  0
 13  8  1  0
  9 10  2  0
 12 13  2  0
 12 16  1  0
M  END
$$$$
