
     RDKit          3D

 16 17  0  0  0  0  0  0  0  0999 V2000
   -4.5502   -5.2381   23.4513 C   0  0  0  0  0  0  0  0  0  0  0  0
   -4.6307   -6.2800   20.0270 C   0  0  0  0  0  0  0  0  0  0  0  0
   -4.3991   -6.1650   22.4623 C   0  0  0  0  0  0  0  0  0  0  0  0
   -7.3143   -6.0756   16.9498 C   0  0  0  0  0  0  0  0  0  0  0  0
   -3.8054   -5.4138   24.6392 C   0  0  0  0  0  0  0  0  0  0  0  0
   -2.9600   -6.4718   24.8026 C   0  0  0  0  0  0  0  0  0  0  0  0
   -5.4152   -4.0811   23.3870 C   0  0  0  0  0  0  0  0  0  0  0  0
   -6.0197   -5.7857   16.6077 C   0  0  0  0  0  0  0  0  0  0  0  0
   -3.5360   -7.2363   22.6415 C   0  0  0  0  0  0  0  0  0  0  0  0
   -2.8176   -7.3953   23.8016 C   0  0  0  0  0  0  0  0  0  0  0  0
   -5.1402   -6.0319   21.2226 C   0  0  0  0  0  0  0  0  0  0  0  0
   -5.4396   -6.1621   18.8348 C   0  0  0  0  0  0  0  0  0  0  0  0
   -5.1037   -5.8342   17.5580 C   0  0  0  0  0  0  0  0  0  0  0  0
   -6.5219   -3.9617   23.9019 O   0  0  0  0  0  0  0  0  0  0  0  0
   -4.9950   -2.9271   22.6653 O   0  0  0  0  0  0  0  0  0  0  0  0
   -7.1947   -6.4323   18.7211 S   0  0  0  0  0  0  0  0  0  0  0  0
  3  1  2  0
  1  5  1  0
  1  7  1  0
  2 11  2  0
 12  2  1  0
  3  9  1  0
 11  3  1  0
  8  4  2  0
  4 16  1  0
  5  6  2  0
 10  6  1  0
  7 14  2  0
  7 15  1  0
 13  8  1  0
  9 10  2  0
 12 13  2  0
 12 16  1  0
M  END
$$$$
