
     RDKit          3D

 16 17  0  0  0  0  0  0  0  0999 V2000
   -5.3503   -6.3515   23.4660 C   0  0  0  0  0  0  0  0  0  0  0  0
   -5.6090   -6.6540   19.8939 C   0  0  0  0  0  0  0  0  0  0  0  0
   -6.0432   -6.4630   22.2966 C   0  0  0  0  0  0  0  0  0  0  0  0
   -4.2229   -5.5444   16.2115 C   0  0  0  0  0  0  0  0  0  0  0  0
   -5.9845   -6.7843   24.6522 C   0  0  0  0  0  0  0  0  0  0  0  0
   -7.2480   -7.2983   24.6403 C   0  0  0  0  0  0  0  0  0  0  0  0
   -4.0103   -5.8235   23.5961 C   0  0  0  0  0  0  0  0  0  0  0  0
   -3.7317   -4.8106   17.2590 C   0  0  0  0  0  0  0  0  0  0  0  0
   -7.3275   -6.9876   22.2986 C   0  0  0  0  0  0  0  0  0  0  0  0
   -7.9327   -7.4047   23.4591 C   0  0  0  0  0  0  0  0  0  0  0  0
   -5.4385   -6.0336   21.0501 C   0  0  0  0  0  0  0  0  0  0  0  0
   -5.0232   -6.1357   18.6783 C   0  0  0  0  0  0  0  0  0  0  0  0
   -4.1413   -5.1198   18.4759 C   0  0  0  0  0  0  0  0  0  0  0  0
   -2.9610   -6.4244   23.3917 O   0  0  0  0  0  0  0  0  0  0  0  0
   -3.8229   -4.4706   24.0006 O   0  0  0  0  0  0  0  0  0  0  0  0
   -5.3224   -6.7293   17.0277 S   0  0  0  0  0  0  0  0  0  0  0  0
  3  1  2  0
  1  5  1  0
  1  7  1  0
  2 11  2  0
 12  2  1  0
  3  9  1  0
 11  3  1  0
  8  4  2  0
  4 16  1  0
  5  6  2  0
 10  6  1  0
  7 14  2  0
  7 15  1  0
 13  8  1  0
  9 10  2  0
 12 13  2  0
 12 16  1  0
M  END
$$$$
