
     RDKit          3D

 16 17  0  0  0  0  0  0  0  0999 V2000
   -5.3144   -6.8973   23.2425 C   0  0  0  0  0  0  0  0  0  0  0  0
   -5.8500   -6.5071   19.6659 C   0  0  0  0  0  0  0  0  0  0  0  0
   -6.0043   -6.9604   22.0677 C   0  0  0  0  0  0  0  0  0  0  0  0
   -3.9269   -5.9655   16.0992 C   0  0  0  0  0  0  0  0  0  0  0  0
   -6.0524   -6.9697   24.4453 C   0  0  0  0  0  0  0  0  0  0  0  0
   -7.4104   -7.0985   24.4438 C   0  0  0  0  0  0  0  0  0  0  0  0
   -3.8798   -6.7614   23.3627 C   0  0  0  0  0  0  0  0  0  0  0  0
   -3.5672   -7.0965   16.7838 C   0  0  0  0  0  0  0  0  0  0  0  0
   -7.3854   -7.0914   22.0804 C   0  0  0  0  0  0  0  0  0  0  0  0
   -8.0909   -7.1606   23.2571 C   0  0  0  0  0  0  0  0  0  0  0  0
   -5.2953   -6.8907   20.8042 C   0  0  0  0  0  0  0  0  0  0  0  0
   -5.0839   -6.4698   18.4407 C   0  0  0  0  0  0  0  0  0  0  0  0
   -4.1530   -7.3289   17.9444 C   0  0  0  0  0  0  0  0  0  0  0  0
   -3.2668   -5.7842   23.7790 O   0  0  0  0  0  0  0  0  0  0  0  0
   -3.0353   -7.8405   22.9733 O   0  0  0  0  0  0  0  0  0  0  0  0
   -5.1645   -5.2116   17.1851 S   0  0  0  0  0  0  0  0  0  0  0  0
  3  1  2  0
  1  5  1  0
  1  7  1  0
  2 11  2  0
 12  2  1  0
  3  9  1  0
 11  3  1  0
  8  4  2  0
  4 16  1  0
  5  6  2  0
 10  6  1  0
  7 14  2  0
  7 15  1  0
 13  8  1  0
  9 10  2  0
 12 13  2  0
 12 16  1  0
M  END
$$$$
