
     RDKit          3D

 20 22  0  0  0  0  0  0  0  0999 V2000
   10.2011   47.4514   67.0539 N   0  0  0  0  0  4  0  0  0  0  0  0
   10.8130   47.0195   66.0076 C   0  0  0  0  0  0  0  0  0  0  0  0
   11.7433   47.9148   65.4117 N   0  0  0  0  0  0  0  0  0  0  0  0
   10.5231   45.6795   65.4934 C   0  0  2  0  0  0  0  0  0  0  0  0
    9.4232   45.5958   64.4964 C   0  0  0  0  0  0  0  0  0  0  0  0
    9.0160   44.2853   65.1493 C   0  0  0  0  0  0  0  0  0  0  0  0
    9.5953   44.8851   66.4400 C   0  0  0  0  0  0  0  0  0  0  0  0
   11.7005   44.8029   65.2201 C   0  0  0  0  0  0  0  0  0  0  0  0
   12.0354   44.3735   63.9544 C   0  0  0  0  0  0  0  0  0  0  0  0
   13.1421   43.5358   63.7520 C   0  0  0  0  0  0  0  0  0  0  0  0
   13.5294   43.0153   62.1233 Cl  0  0  0  0  0  0  0  0  0  0  0  0
   13.8887   43.1505   64.8454 C   0  0  0  0  0  0  0  0  0  0  0  0
   13.5868   43.5581   66.1266 C   0  0  0  0  0  0  0  0  0  0  0  0
   14.3959   43.1332   67.2642 C   0  0  0  0  0  0  0  0  0  0  0  0
   15.7632   42.9564   67.1638 C   0  0  0  0  0  0  0  0  0  0  0  0
   16.5153   42.5538   68.2470 C   0  0  0  0  0  0  0  0  0  0  0  0
   15.9443   42.3087   69.4781 C   0  0  0  0  0  0  0  0  0  0  0  0
   14.5807   42.4828   69.5868 C   0  0  0  0  0  0  0  0  0  0  0  0
   13.8288   42.8855   68.5029 C   0  0  0  0  0  0  0  0  0  0  0  0
   12.4719   44.3934   66.2730 C   0  0  0  0  0  0  0  0  0  0  0  0
  1  2  2  3
  2  3  1  0
  2  4  1  0
  7  4  1  6
  4  5  1  0
  4  8  1  6
  5  6  1  1
  6  7  1  1
  8 20  1  0
  8  9  2  0
  9 10  1  0
 10 11  1  0
 10 12  2  0
 12 13  1  0
 13 14  1  0
 13 20  2  0
 14 19  1  0
 14 15  2  0
 15 16  1  0
 16 17  2  0
 17 18  1  0
 18 19  2  0
M  CHG  1   1   1
M  END
$$$$
