
     RDKit          3D

 20 22  0  0  0  0  0  0  0  0999 V2000
   15.1208   45.9189   62.9811 N   0  0  0  0  0  4  0  0  0  0  0  0
   15.7789   45.3255   63.9140 C   0  0  0  0  0  0  0  0  0  0  0  0
   16.7673   46.1045   64.5763 N   0  0  0  0  0  0  0  0  0  0  0  0
   15.4961   43.9237   64.2288 C   0  0  2  0  0  0  0  0  0  0  0  0
   16.6198   42.9748   64.0109 C   0  0  0  0  0  0  0  0  0  0  0  0
   15.5931   41.9722   63.5107 C   0  0  0  0  0  0  0  0  0  0  0  0
   14.7867   43.2008   63.0618 C   0  0  0  0  0  0  0  0  0  0  0  0
   14.6727   43.6690   65.4482 C   0  0  0  0  0  0  0  0  0  0  0  0
   15.1895   43.1085   66.5958 C   0  0  0  0  0  0  0  0  0  0  0  0
   14.3699   42.8729   67.7095 C   0  0  0  0  0  0  0  0  0  0  0  0
   15.0725   42.1578   69.1478 Cl  0  0  0  0  0  0  0  0  0  0  0  0
   13.0360   43.2139   67.6329 C   0  0  0  0  0  0  0  0  0  0  0  0
   12.4812   43.7762   66.5039 C   0  0  0  0  0  0  0  0  0  0  0  0
   11.0654   44.1261   66.4528 C   0  0  0  0  0  0  0  0  0  0  0  0
   10.2933   43.8883   65.3311 C   0  0  0  0  0  0  0  0  0  0  0  0
    8.9566   44.2246   65.2966 C   0  0  0  0  0  0  0  0  0  0  0  0
    8.3264   44.8120   66.3734 C   0  0  0  0  0  0  0  0  0  0  0  0
    9.0896   45.0526   67.4965 C   0  0  0  0  0  0  0  0  0  0  0  0
   10.4266   44.7159   67.5305 C   0  0  0  0  0  0  0  0  0  0  0  0
   13.3432   43.9899   65.4207 C   0  0  0  0  0  0  0  0  0  0  0  0
  1  2  2  3
  2  3  1  0
  2  4  1  0
  7  4  1  6
  4  5  1  0
  4  8  1  1
  5  6  1  1
  6  7  1  1
  8 20  1  0
  8  9  2  0
  9 10  1  0
 10 11  1  0
 10 12  2  0
 12 13  1  0
 13 14  1  0
 13 20  2  0
 14 19  1  0
 14 15  2  0
 15 16  1  0
 16 17  2  0
 17 18  1  0
 18 19  2  0
M  CHG  1   1   1
M  END
$$$$
