
     RDKit          3D

 20 22  0  0  0  0  0  0  0  0999 V2000
   26.8448   49.7494   42.3926 N   0  0  0  0  0  4  0  0  0  0  0  0
   27.2299   48.9853   41.4317 C   0  0  0  0  0  0  0  0  0  0  0  0
   26.9483   49.4440   40.1154 N   0  0  0  0  0  0  0  0  0  0  0  0
   27.9045   47.7204   41.7302 C   0  0  2  0  0  0  0  0  0  0  0  0
   28.2161   47.4788   43.1638 C   0  0  0  0  0  0  0  0  0  0  0  0
   29.5241   46.8529   42.7088 C   0  0  0  0  0  0  0  0  0  0  0  0
   29.4317   47.8146   41.5139 C   0  0  0  0  0  0  0  0  0  0  0  0
   27.4415   46.5235   40.9669 C   0  0  0  0  0  0  0  0  0  0  0  0
   28.2516   45.4377   40.7153 C   0  0  0  0  0  0  0  0  0  0  0  0
   27.7746   44.3442   39.9776 C   0  0  0  0  0  0  0  0  0  0  0  0
   28.8422   42.9852   39.6828 Cl  0  0  0  0  0  0  0  0  0  0  0  0
   26.4781   44.3773   39.5093 C   0  0  0  0  0  0  0  0  0  0  0  0
   25.6367   45.4439   39.7396 C   0  0  0  0  0  0  0  0  0  0  0  0
   24.2691   45.4501   39.2305 C   0  0  0  0  0  0  0  0  0  0  0  0
   23.5532   46.6220   39.0718 C   0  0  0  0  0  0  0  0  0  0  0  0
   22.2613   46.6128   38.5901 C   0  0  0  0  0  0  0  0  0  0  0  0
   21.6221   45.4408   38.2445 C   0  0  0  0  0  0  0  0  0  0  0  0
   22.3295   44.2673   38.3999 C   0  0  0  0  0  0  0  0  0  0  0  0
   23.6218   44.2769   38.8817 C   0  0  0  0  0  0  0  0  0  0  0  0
   26.1629   46.5095   40.4811 C   0  0  0  0  0  0  0  0  0  0  0  0
  1  2  2  3
  2  3  1  0
  2  4  1  0
  7  4  1  6
  4  5  1  0
  4  8  1  6
  5  6  1  1
  6  7  1  1
  8 20  1  0
  8  9  2  0
  9 10  1  0
 10 11  1  0
 10 12  2  0
 12 13  1  0
 13 14  1  0
 13 20  2  0
 14 19  1  0
 14 15  2  0
 15 16  1  0
 16 17  2  0
 17 18  1  0
 18 19  2  0
M  CHG  1   1   1
M  END
$$$$
