
     RDKit          3D

 20 22  0  0  0  0  0  0  0  0999 V2000
   27.9735   41.4770   68.1653 N   0  0  0  0  0  4  0  0  0  0  0  0
   27.4579   41.5919   69.3385 C   0  0  0  0  0  0  0  0  0  0  0  0
   27.7920   42.7730   70.0567 N   0  0  0  0  0  0  0  0  0  0  0  0
   26.5928   40.5332   69.8627 C   0  0  2  0  0  0  0  0  0  0  0  0
   26.8288   40.1508   71.2801 C   0  0  0  0  0  0  0  0  0  0  0  0
   26.5632   38.7117   70.8700 C   0  0  0  0  0  0  0  0  0  0  0  0
   27.1150   39.1256   69.4970 C   0  0  0  0  0  0  0  0  0  0  0  0
   25.1604   40.5760   69.4430 C   0  0  0  0  0  0  0  0  0  0  0  0
   24.7533   40.3406   68.1480 C   0  0  0  0  0  0  0  0  0  0  0  0
   23.3962   40.4100   67.8002 C   0  0  0  0  0  0  0  0  0  0  0  0
   22.9259   40.1026   66.1395 Cl  0  0  0  0  0  0  0  0  0  0  0  0
   22.4771   40.7185   68.7809 C   0  0  0  0  0  0  0  0  0  0  0  0
   22.8438   40.9604   70.0869 C   0  0  0  0  0  0  0  0  0  0  0  0
   21.8477   41.2849   71.1027 C   0  0  0  0  0  0  0  0  0  0  0  0
   20.5077   41.4267   70.7940 C   0  0  0  0  0  0  0  0  0  0  0  0
   19.5774   41.7341   71.7641 C   0  0  0  0  0  0  0  0  0  0  0  0
   19.9351   41.9147   73.0836 C   0  0  0  0  0  0  0  0  0  0  0  0
   21.2700   41.7750   73.4000 C   0  0  0  0  0  0  0  0  0  0  0  0
   22.2002   41.4674   72.4293 C   0  0  0  0  0  0  0  0  0  0  0  0
   24.2110   40.8785   70.3803 C   0  0  0  0  0  0  0  0  0  0  0  0
  1  2  2  3
  2  3  1  0
  2  4  1  0
  7  4  1  6
  4  5  1  0
  4  8  1  1
  5  6  1  1
  6  7  1  1
  8 20  1  0
  8  9  2  0
  9 10  1  0
 10 11  1  0
 10 12  2  0
 12 13  1  0
 13 14  1  0
 13 20  2  0
 14 19  1  0
 14 15  2  0
 15 16  1  0
 16 17  2  0
 17 18  1  0
 18 19  2  0
M  CHG  1   1   1
M  END
$$$$
