
     RDKit          3D

 20 22  0  0  0  0  0  0  0  0999 V2000
   24.1585   41.1934   70.3458 N   0  0  0  0  0  4  0  0  0  0  0  0
   24.5374   41.3178   69.1226 C   0  0  0  0  0  0  0  0  0  0  0  0
   25.1484   42.5551   68.7788 N   0  0  0  0  0  0  0  0  0  0  0  0
   24.3183   40.2229   68.1753 C   0  0  2  0  0  0  0  0  0  0  0  0
   24.2718   38.8592   68.7661 C   0  0  0  0  0  0  0  0  0  0  0  0
   25.0174   38.3694   67.5357 C   0  0  0  0  0  0  0  0  0  0  0  0
   25.6310   39.7775   67.4927 C   0  0  0  0  0  0  0  0  0  0  0  0
   23.3363   40.4779   67.0797 C   0  0  0  0  0  0  0  0  0  0  0  0
   23.6926   40.5124   65.7493 C   0  0  0  0  0  0  0  0  0  0  0  0
   22.7350   40.7736   64.7581 C   0  0  0  0  0  0  0  0  0  0  0  0
   23.2356   40.8074   63.0783 Cl  0  0  0  0  0  0  0  0  0  0  0  0
   21.4292   40.9949   65.1421 C   0  0  0  0  0  0  0  0  0  0  0  0
   21.0329   40.9688   66.4615 C   0  0  0  0  0  0  0  0  0  0  0  0
   19.6430   41.2073   66.8369 C   0  0  0  0  0  0  0  0  0  0  0  0
   19.3001   41.7723   68.0511 C   0  0  0  0  0  0  0  0  0  0  0  0
   17.9825   41.9915   68.3929 C   0  0  0  0  0  0  0  0  0  0  0  0
   16.9464   41.6598   67.5455 C   0  0  0  0  0  0  0  0  0  0  0  0
   17.2799   41.0957   66.3322 C   0  0  0  0  0  0  0  0  0  0  0  0
   18.5981   40.8767   65.9907 C   0  0  0  0  0  0  0  0  0  0  0  0
   22.0284   40.7039   67.4106 C   0  0  0  0  0  0  0  0  0  0  0  0
  1  2  2  3
  2  3  1  0
  2  4  1  0
  7  4  1  6
  4  5  1  0
  4  8  1  6
  5  6  1  1
  6  7  1  1
  8 20  1  0
  8  9  2  0
  9 10  1  0
 10 11  1  0
 10 12  2  0
 12 13  1  0
 13 14  1  0
 13 20  2  0
 14 19  1  0
 14 15  2  0
 15 16  1  0
 16 17  2  0
 17 18  1  0
 18 19  2  0
M  CHG  1   1   1
M  END
$$$$
