
     RDKit          3D

 20 22  0  0  0  0  0  0  0  0999 V2000
    9.8954   46.6312   62.0964 N   0  0  0  0  0  4  0  0  0  0  0  0
    9.1158   47.0851   63.0138 C   0  0  0  0  0  0  0  0  0  0  0  0
    8.4193   48.2862   62.7063 N   0  0  0  0  0  0  0  0  0  0  0  0
    8.9971   46.3744   64.2885 C   0  0  2  0  0  0  0  0  0  0  0  0
    8.7174   44.9174   64.1905 C   0  0  0  0  0  0  0  0  0  0  0  0
    7.8110   45.0741   65.4003 C   0  0  0  0  0  0  0  0  0  0  0  0
    7.5819   46.5070   64.8948 C   0  0  0  0  0  0  0  0  0  0  0  0
    9.9567   46.7694   65.3622 C   0  0  0  0  0  0  0  0  0  0  0  0
    9.6031   47.5767   66.4213 C   0  0  0  0  0  0  0  0  0  0  0  0
   10.5469   47.9339   67.3956 C   0  0  0  0  0  0  0  0  0  0  0  0
   10.0503   48.9631   68.7251 Cl  0  0  0  0  0  0  0  0  0  0  0  0
   11.8362   47.4607   67.2723 C   0  0  0  0  0  0  0  0  0  0  0  0
   12.2292   46.6515   66.2286 C   0  0  0  0  0  0  0  0  0  0  0  0
   13.6017   46.1665   66.1250 C   0  0  0  0  0  0  0  0  0  0  0  0
   14.5128   46.7308   65.2518 C   0  0  0  0  0  0  0  0  0  0  0  0
   15.8064   46.2619   65.1640 C   0  0  0  0  0  0  0  0  0  0  0  0
   16.2538   45.2123   65.9386 C   0  0  0  0  0  0  0  0  0  0  0  0
   15.3511   44.6438   66.8124 C   0  0  0  0  0  0  0  0  0  0  0  0
   14.0572   45.1132   66.8999 C   0  0  0  0  0  0  0  0  0  0  0  0
   11.2481   46.3253   65.2836 C   0  0  0  0  0  0  0  0  0  0  0  0
  1  2  2  3
  2  3  1  0
  2  4  1  0
  7  4  1  6
  4  5  1  0
  4  8  1  1
  5  6  1  1
  6  7  1  1
  8 20  1  0
  8  9  2  0
  9 10  1  0
 10 11  1  0
 10 12  2  0
 12 13  1  0
 13 14  1  0
 13 20  2  0
 14 19  1  0
 14 15  2  0
 15 16  1  0
 16 17  2  0
 17 18  1  0
 18 19  2  0
M  CHG  1   1   1
M  END
$$$$
