
     RDKit          3D

 20 22  0  0  0  0  0  0  0  0999 V2000
   24.3479   38.5674   71.0589 N   0  0  0  0  0  4  0  0  0  0  0  0
   24.2494   39.8023   70.7115 C   0  0  0  0  0  0  0  0  0  0  0  0
   23.0796   40.4840   71.1464 N   0  0  0  0  0  0  0  0  0  0  0  0
   25.3034   40.4199   69.9041 C   0  0  2  0  0  0  0  0  0  0  0  0
   26.6753   40.3502   70.4729 C   0  0  0  0  0  0  0  0  0  0  0  0
   26.9011   41.7539   69.9361 C   0  0  0  0  0  0  0  0  0  0  0  0
   25.3895   41.9454   70.1350 C   0  0  0  0  0  0  0  0  0  0  0  0
   25.2136   40.2193   68.4272 C   0  0  0  0  0  0  0  0  0  0  0  0
   24.0146   40.1760   67.7499 C   0  0  0  0  0  0  0  0  0  0  0  0
   23.9827   39.9673   66.3632 C   0  0  0  0  0  0  0  0  0  0  0  0
   22.4330   39.9201   65.5446 Cl  0  0  0  0  0  0  0  0  0  0  0  0
   25.1759   39.8065   65.6910 C   0  0  0  0  0  0  0  0  0  0  0  0
   26.3952   39.8433   66.3316 C   0  0  0  0  0  0  0  0  0  0  0  0
   27.6415   39.6694   65.5928 C   0  0  0  0  0  0  0  0  0  0  0  0
   28.7398   39.0406   66.1490 C   0  0  0  0  0  0  0  0  0  0  0  0
   29.9115   38.8837   65.4393 C   0  0  0  0  0  0  0  0  0  0  0  0
   30.0458   39.3437   64.1462 C   0  0  0  0  0  0  0  0  0  0  0  0
   28.9547   39.9722   63.5840 C   0  0  0  0  0  0  0  0  0  0  0  0
   27.7829   40.1289   64.2942 C   0  0  0  0  0  0  0  0  0  0  0  0
   26.3705   40.0542   67.7162 C   0  0  0  0  0  0  0  0  0  0  0  0
  1  2  2  3
  2  3  1  0
  2  4  1  0
  7  4  1  6
  4  5  1  0
  4  8  1  6
  5  6  1  1
  6  7  1  1
  8 20  1  0
  8  9  2  0
  9 10  1  0
 10 11  1  0
 10 12  2  0
 12 13  1  0
 13 14  1  0
 13 20  2  0
 14 19  1  0
 14 15  2  0
 15 16  1  0
 16 17  2  0
 17 18  1  0
 18 19  2  0
M  CHG  1   1   1
M  END
$$$$
