
     RDKit          3D

 20 22  0  0  0  0  0  0  0  0999 V2000
   14.9178   41.0168   63.4592 N   0  0  0  0  0  4  0  0  0  0  0  0
   15.9819   40.4490   63.0111 C   0  0  0  0  0  0  0  0  0  0  0  0
   15.7953   39.2093   62.3399 N   0  0  0  0  0  0  0  0  0  0  0  0
   17.2876   41.0789   63.2173 C   0  0  2  0  0  0  0  0  0  0  0  0
   17.5844   41.5061   64.6102 C   0  0  0  0  0  0  0  0  0  0  0  0
   18.2641   42.7316   64.0224 C   0  0  0  0  0  0  0  0  0  0  0  0
   17.2663   42.5829   62.8633 C   0  0  0  0  0  0  0  0  0  0  0  0
   18.4376   40.4846   62.4730 C   0  0  0  0  0  0  0  0  0  0  0  0
   19.5404   39.9506   63.1031 C   0  0  0  0  0  0  0  0  0  0  0  0
   20.6036   39.4197   62.3580 C   0  0  0  0  0  0  0  0  0  0  0  0
   21.9859   38.7509   63.2040 Cl  0  0  0  0  0  0  0  0  0  0  0  0
   20.5230   39.4427   60.9817 C   0  0  0  0  0  0  0  0  0  0  0  0
   19.4379   39.9675   60.3141 C   0  0  0  0  0  0  0  0  0  0  0  0
   19.3816   39.9780   58.8559 C   0  0  0  0  0  0  0  0  0  0  0  0
   18.1858   39.8797   58.1695 C   0  0  0  0  0  0  0  0  0  0  0  0
   18.1476   39.8903   56.7913 C   0  0  0  0  0  0  0  0  0  0  0  0
   19.2941   39.9990   56.0327 C   0  0  0  0  0  0  0  0  0  0  0  0
   20.4913   40.0976   56.7098 C   0  0  0  0  0  0  0  0  0  0  0  0
   20.5290   40.0869   58.0885 C   0  0  0  0  0  0  0  0  0  0  0  0
   18.4043   40.4847   61.1055 C   0  0  0  0  0  0  0  0  0  0  0  0
  1  2  2  3
  2  3  1  0
  2  4  1  0
  7  4  1  6
  4  5  1  0
  4  8  1  6
  5  6  1  1
  6  7  1  1
  8 20  1  0
  8  9  2  0
  9 10  1  0
 10 11  1  0
 10 12  2  0
 12 13  1  0
 13 14  1  0
 13 20  2  0
 14 19  1  0
 14 15  2  0
 15 16  1  0
 16 17  2  0
 17 18  1  0
 18 19  2  0
M  CHG  1   1   1
M  END
$$$$
