
     RDKit          3D

 20 22  0  0  0  0  0  0  0  0999 V2000
   19.3596   40.8250   65.7530 N   0  0  0  0  0  4  0  0  0  0  0  0
   18.8616   40.2988   64.6897 C   0  0  0  0  0  0  0  0  0  0  0  0
   18.7723   38.8796   64.6758 N   0  0  0  0  0  0  0  0  0  0  0  0
   18.4373   41.1558   63.5808 C   0  0  2  0  0  0  0  0  0  0  0  0
   18.1148   42.5620   63.9401 C   0  0  0  0  0  0  0  0  0  0  0  0
   16.9783   42.4920   62.9335 C   0  0  0  0  0  0  0  0  0  0  0  0
   16.9331   40.9927   63.2669 C   0  0  0  0  0  0  0  0  0  0  0  0
   19.1619   40.9774   62.2875 C   0  0  0  0  0  0  0  0  0  0  0  0
   20.5328   40.8655   62.2076 C   0  0  0  0  0  0  0  0  0  0  0  0
   21.1679   40.7168   60.9658 C   0  0  0  0  0  0  0  0  0  0  0  0
   22.9148   40.5782   60.9140 Cl  0  0  0  0  0  0  0  0  0  0  0  0
   20.3925   40.6847   59.8260 C   0  0  0  0  0  0  0  0  0  0  0  0
   19.0194   40.7932   59.8637 C   0  0  0  0  0  0  0  0  0  0  0  0
   18.2255   40.7561   58.6398 C   0  0  0  0  0  0  0  0  0  0  0  0
   16.9296   40.2751   58.6231 C   0  0  0  0  0  0  0  0  0  0  0  0
   16.1912   40.2454   57.4591 C   0  0  0  0  0  0  0  0  0  0  0  0
   16.7055   40.6915   56.2598 C   0  0  0  0  0  0  0  0  0  0  0  0
   17.9977   41.1729   56.2679 C   0  0  0  0  0  0  0  0  0  0  0  0
   18.7359   41.2025   57.4325 C   0  0  0  0  0  0  0  0  0  0  0  0
   18.4360   40.9400   61.1287 C   0  0  0  0  0  0  0  0  0  0  0  0
  1  2  2  3
  2  3  1  0
  2  4  1  0
  7  4  1  6
  4  5  1  0
  4  8  1  6
  5  6  1  1
  6  7  1  1
  8 20  1  0
  8  9  2  0
  9 10  1  0
 10 11  1  0
 10 12  2  0
 12 13  1  0
 13 14  1  0
 13 20  2  0
 14 19  1  0
 14 15  2  0
 15 16  1  0
 16 17  2  0
 17 18  1  0
 18 19  2  0
M  CHG  1   1   1
M  END
$$$$
