
     RDKit          3D

 20 22  0  0  0  0  0  0  0  0999 V2000
   17.4872   43.5572   65.7944 N   0  0  0  0  0  4  0  0  0  0  0  0
   16.3647   42.9581   65.9853 C   0  0  0  0  0  0  0  0  0  0  0  0
   16.0868   42.5590   67.3216 N   0  0  0  0  0  0  0  0  0  0  0  0
   15.4656   42.7148   64.8555 C   0  0  2  0  0  0  0  0  0  0  0  0
   15.8008   41.5412   64.0062 C   0  0  0  0  0  0  0  0  0  0  0  0
   15.3757   42.3690   62.8047 C   0  0  0  0  0  0  0  0  0  0  0  0
   15.8288   43.5833   63.6301 C   0  0  0  0  0  0  0  0  0  0  0  0
   14.0089   42.9254   65.1073 C   0  0  0  0  0  0  0  0  0  0  0  0
   13.0495   41.9962   64.7689 C   0  0  0  0  0  0  0  0  0  0  0  0
   11.6911   42.2490   65.0105 C   0  0  0  0  0  0  0  0  0  0  0  0
   10.5066   41.0367   64.5628 Cl  0  0  0  0  0  0  0  0  0  0  0  0
   11.3349   43.4466   65.5940 C   0  0  0  0  0  0  0  0  0  0  0  0
   12.2637   44.4012   65.9471 C   0  0  0  0  0  0  0  0  0  0  0  0
   11.8559   45.6597   66.5630 C   0  0  0  0  0  0  0  0  0  0  0  0
   10.8576   45.7170   67.5175 C   0  0  0  0  0  0  0  0  0  0  0  0
   10.4819   46.9134   68.0907 C   0  0  0  0  0  0  0  0  0  0  0  0
   11.0799   48.1062   67.7425 C   0  0  0  0  0  0  0  0  0  0  0  0
   12.0768   48.0577   66.7909 C   0  0  0  0  0  0  0  0  0  0  0  0
   12.4522   46.8607   66.2178 C   0  0  0  0  0  0  0  0  0  0  0  0
   13.6058   44.0985   65.6838 C   0  0  0  0  0  0  0  0  0  0  0  0
  1  2  2  3
  2  3  1  0
  2  4  1  0
  7  4  1  6
  4  5  1  0
  4  8  1  1
  5  6  1  1
  6  7  1  1
  8 20  1  0
  8  9  2  0
  9 10  1  0
 10 11  1  0
 10 12  2  0
 12 13  1  0
 13 14  1  0
 13 20  2  0
 14 19  1  0
 14 15  2  0
 15 16  1  0
 16 17  2  0
 17 18  1  0
 18 19  2  0
M  CHG  1   1   1
M  END
$$$$
