
     RDKit          3D

 20 22  0  0  0  0  0  0  0  0999 V2000
   25.8878   37.2065   69.6582 N   0  0  0  0  0  4  0  0  0  0  0  0
   26.0012   38.4644   69.9036 C   0  0  0  0  0  0  0  0  0  0  0  0
   25.8671   38.8516   71.2653 N   0  0  0  0  0  0  0  0  0  0  0  0
   26.2425   39.4034   68.8063 C   0  0  2  0  0  0  0  0  0  0  0  0
   27.4160   39.1004   67.9449 C   0  0  0  0  0  0  0  0  0  0  0  0
   27.6752   40.5965   67.8803 C   0  0  0  0  0  0  0  0  0  0  0  0
   27.0290   40.6488   69.2734 C   0  0  0  0  0  0  0  0  0  0  0  0
   25.0360   39.9095   68.0866 C   0  0  0  0  0  0  0  0  0  0  0  0
   23.9397   40.4301   68.7389 C   0  0  0  0  0  0  0  0  0  0  0  0
   22.8226   40.8766   68.0176 C   0  0  0  0  0  0  0  0  0  0  0  0
   21.4510   41.5314   68.8913 Cl  0  0  0  0  0  0  0  0  0  0  0  0
   22.8436   40.7843   66.6419 C   0  0  0  0  0  0  0  0  0  0  0  0
   23.9203   40.2702   65.9526 C   0  0  0  0  0  0  0  0  0  0  0  0
   23.9128   40.1851   64.4958 C   0  0  0  0  0  0  0  0  0  0  0  0
   24.2561   39.0236   63.8294 C   0  0  0  0  0  0  0  0  0  0  0  0
   24.2452   38.9576   62.4522 C   0  0  0  0  0  0  0  0  0  0  0  0
   23.8933   40.0410   61.6749 C   0  0  0  0  0  0  0  0  0  0  0  0
   23.5495   41.2035   62.3320 C   0  0  0  0  0  0  0  0  0  0  0  0
   23.5605   41.2691   63.7096 C   0  0  0  0  0  0  0  0  0  0  0  0
   25.0092   39.8387   66.7208 C   0  0  0  0  0  0  0  0  0  0  0  0
  1  2  2  3
  2  3  1  0
  2  4  1  0
  7  4  1  6
  4  5  1  0
  4  8  1  6
  5  6  1  1
  6  7  1  1
  8 20  1  0
  8  9  2  0
  9 10  1  0
 10 11  1  0
 10 12  2  0
 12 13  1  0
 13 14  1  0
 13 20  2  0
 14 19  1  0
 14 15  2  0
 15 16  1  0
 16 17  2  0
 17 18  1  0
 18 19  2  0
M  CHG  1   1   1
M  END
$$$$
