
     RDKit          3D

 20 22  0  0  0  0  0  0  0  0999 V2000
   29.6334   50.1909   43.9113 N   0  0  0  0  0  4  0  0  0  0  0  0
   29.2966   50.7889   44.9996 C   0  0  0  0  0  0  0  0  0  0  0  0
   28.2697   51.7661   44.8854 N   0  0  0  0  0  0  0  0  0  0  0  0
   29.9713   50.4545   46.2553 C   0  0  2  0  0  0  0  0  0  0  0  0
   30.4179   51.6117   47.0751 C   0  0  0  0  0  0  0  0  0  0  0  0
   31.6614   50.8081   47.4180 C   0  0  0  0  0  0  0  0  0  0  0  0
   31.4712   50.1500   46.0426 C   0  0  0  0  0  0  0  0  0  0  0  0
   29.4106   49.3048   47.0258 C   0  0  0  0  0  0  0  0  0  0  0  0
   30.1982   48.3124   47.5673 C   0  0  0  0  0  0  0  0  0  0  0  0
   29.6213   47.2430   48.2682 C   0  0  0  0  0  0  0  0  0  0  0  0
   30.6639   46.0037   48.9396 Cl  0  0  0  0  0  0  0  0  0  0  0  0
   28.2497   47.2049   48.4048 C   0  0  0  0  0  0  0  0  0  0  0  0
   27.4278   48.1776   47.8784 C   0  0  0  0  0  0  0  0  0  0  0  0
   25.9790   48.1096   48.0391 C   0  0  0  0  0  0  0  0  0  0  0  0
   25.1138   48.3895   46.9980 C   0  0  0  0  0  0  0  0  0  0  0  0
   23.7467   48.3218   47.1644 C   0  0  0  0  0  0  0  0  0  0  0  0
   23.1772   47.9735   48.3710 C   0  0  0  0  0  0  0  0  0  0  0  0
   24.0335   47.6927   49.4148 C   0  0  0  0  0  0  0  0  0  0  0  0
   25.4009   47.7605   49.2479 C   0  0  0  0  0  0  0  0  0  0  0  0
   28.0548   49.2226   47.1879 C   0  0  0  0  0  0  0  0  0  0  0  0
  1  2  2  3
  2  3  1  0
  2  4  1  0
  7  4  1  6
  4  5  1  0
  4  8  1  1
  5  6  1  1
  6  7  1  1
  8 20  1  0
  8  9  2  0
  9 10  1  0
 10 11  1  0
 10 12  2  0
 12 13  1  0
 13 14  1  0
 13 20  2  0
 14 19  1  0
 14 15  2  0
 15 16  1  0
 16 17  2  0
 17 18  1  0
 18 19  2  0
M  CHG  1   1   1
M  END
$$$$
