
     RDKit          3D

 12 12  0  0  0  0  0  0  0  0999 V2000
  -17.5669   15.4283   14.7179 O   0  0  0  0  0  0  0  0  0  0  0  0
  -18.1621   16.1740   15.5278 C   0  0  0  0  0  0  0  0  0  0  0  0
  -17.7409   16.1710   16.8440 O   0  0  0  0  0  0  0  0  0  0  0  0
  -19.2899   17.0394   15.0914 C   0  0  0  0  0  0  0  0  0  0  0  0
  -19.8927   17.7962   15.9047 N   0  0  0  0  0  0  0  0  0  0  0  0
  -20.9723   18.6705   15.6501 C   0  0  0  0  0  0  0  0  0  0  0  0
  -21.6126   19.5184   16.6703 C   0  0  0  0  0  0  0  0  0  0  0  0
  -21.4009   18.6926   14.3926 C   0  0  0  0  0  0  0  0  0  0  0  0
  -20.7803   17.8628   13.3752 C   0  0  0  0  0  0  0  0  0  0  0  0
  -21.2485   17.9392   12.1880 O   0  0  0  0  0  0  0  0  0  0  0  0
  -19.6541   16.9605   13.6757 C   0  0  0  0  0  0  0  0  0  0  0  0
  -18.5165   17.2985   12.9018 O   0  0  0  0  0  0  0  0  0  0  0  0
  1  2  2  0
  2  3  1  0
  2  4  1  0
  4  5  2  0
  4 11  1  0
  5  6  1  0
  6  7  1  0
  6  8  2  0
  8  9  1  0
  9 10  2  0
  9 11  1  0
 11 12  1  0
M  END
$$$$
