
     RDKit          3D

 12 12  0  0  0  0  0  0  0  0999 V2000
  -17.0071   16.0363   14.6832 O   0  0  0  0  0  0  0  0  0  0  0  0
  -17.8420   16.3030   15.5744 C   0  0  0  0  0  0  0  0  0  0  0  0
  -17.5947   16.0225   16.8966 O   0  0  0  0  0  0  0  0  0  0  0  0
  -19.1219   16.9367   15.1713 C   0  0  0  0  0  0  0  0  0  0  0  0
  -19.9886   17.1534   16.0792 N   0  0  0  0  0  0  0  0  0  0  0  0
  -21.2656   17.7463   15.8956 C   0  0  0  0  0  0  0  0  0  0  0  0
  -22.1981   17.9524   17.0223 C   0  0  0  0  0  0  0  0  0  0  0  0
  -21.5849   18.1061   14.6739 C   0  0  0  0  0  0  0  0  0  0  0  0
  -20.6745   17.9061   13.5672 C   0  0  0  0  0  0  0  0  0  0  0  0
  -21.0675   18.2849   12.4200 O   0  0  0  0  0  0  0  0  0  0  0  0
  -19.3561   17.2927   13.7638 C   0  0  0  0  0  0  0  0  0  0  0  0
  -19.1966   16.1723   12.9196 O   0  0  0  0  0  0  0  0  0  0  0  0
  1  2  2  0
  2  3  1  0
  2  4  1  0
  4  5  2  0
  4 11  1  0
  5  6  1  0
  7  6  1  6
  6  8  2  0
  8  9  1  0
  9 10  2  0
  9 11  1  0
 11 12  1  0
M  END
$$$$
