
     RDKit          3D

 12 12  0  0  0  0  0  0  0  0999 V2000
  -17.5805   15.5546   14.7218 O   0  0  0  0  0  0  0  0  0  0  0  0
  -18.1537   16.3146   15.5342 C   0  0  0  0  0  0  0  0  0  0  0  0
  -17.6821   16.3520   16.8327 O   0  0  0  0  0  0  0  0  0  0  0  0
  -19.3084   17.1546   15.1193 C   0  0  0  0  0  0  0  0  0  0  0  0
  -19.9003   17.9128   15.9394 N   0  0  0  0  0  0  0  0  0  0  0  0
  -21.0017   18.7650   15.7047 C   0  0  0  0  0  0  0  0  0  0  0  0
  -21.6265   19.6165   16.7315 C   0  0  0  0  0  0  0  0  0  0  0  0
  -21.4673   18.7617   14.4601 C   0  0  0  0  0  0  0  0  0  0  0  0
  -20.8624   17.9280   13.4365 C   0  0  0  0  0  0  0  0  0  0  0  0
  -21.3663   17.9795   12.2627 O   0  0  0  0  0  0  0  0  0  0  0  0
  -19.7124   17.0492   13.7161 C   0  0  0  0  0  0  0  0  0  0  0  0
  -18.6039   17.3952   12.9045 O   0  0  0  0  0  0  0  0  0  0  0  0
  1  2  2  0
  2  3  1  0
  2  4  1  0
  4  5  2  0
  4 11  1  0
  5  6  1  0
  6  7  1  0
  6  8  2  0
  8  9  1  0
  9 10  2  0
  9 11  1  0
 11 12  1  0
M  END
$$$$
