
     RDKit          3D

 12 12  0  0  0  0  0  0  0  0999 V2000
  -17.0792   16.3137   14.4914 O   0  0  0  0  0  0  0  0  0  0  0  0
  -17.8904   16.6839   15.3673 C   0  0  0  0  0  0  0  0  0  0  0  0
  -17.6355   16.5008   16.7050 O   0  0  0  0  0  0  0  0  0  0  0  0
  -19.1505   17.3335   14.9285 C   0  0  0  0  0  0  0  0  0  0  0  0
  -19.9931   17.6611   15.8259 N   0  0  0  0  0  0  0  0  0  0  0  0
  -21.2482   18.2884   15.6091 C   0  0  0  0  0  0  0  0  0  0  0  0
  -22.1533   18.6265   16.7261 C   0  0  0  0  0  0  0  0  0  0  0  0
  -21.5727   18.5572   14.3655 C   0  0  0  0  0  0  0  0  0  0  0  0
  -20.6891   18.2277   13.2681 C   0  0  0  0  0  0  0  0  0  0  0  0
  -21.0852   18.5246   12.0982 O   0  0  0  0  0  0  0  0  0  0  0  0
  -19.3931   17.5794   13.4990 C   0  0  0  0  0  0  0  0  0  0  0  0
  -19.2921   16.3865   12.7506 O   0  0  0  0  0  0  0  0  0  0  0  0
  1  2  2  0
  2  3  1  0
  2  4  1  0
  4  5  2  0
  4 11  1  0
  5  6  1  0
  7  6  1  6
  6  8  2  0
  8  9  1  0
  9 10  2  0
  9 11  1  0
 11 12  1  0
M  END
$$$$
