
     RDKit          3D

 12 12  0  0  0  0  0  0  0  0999 V2000
  -17.1746   16.1986   14.9584 O   0  0  0  0  0  0  0  0  0  0  0  0
  -17.8569   16.8145   15.8055 C   0  0  0  0  0  0  0  0  0  0  0  0
  -17.4855   16.8643   17.1275 O   0  0  0  0  0  0  0  0  0  0  0  0
  -19.0918   17.4997   15.3496 C   0  0  0  0  0  0  0  0  0  0  0  0
  -19.8820   17.9531   16.2397 N   0  0  0  0  0  0  0  0  0  0  0  0
  -21.1055   18.6347   16.0067 C   0  0  0  0  0  0  0  0  0  0  0  0
  -21.9499   19.1211   17.1166 C   0  0  0  0  0  0  0  0  0  0  0  0
  -21.4572   18.8157   14.7547 C   0  0  0  0  0  0  0  0  0  0  0  0
  -20.6332   18.3409   13.6643 C   0  0  0  0  0  0  0  0  0  0  0  0
  -21.0522   18.5605   12.4853 O   0  0  0  0  0  0  0  0  0  0  0  0
  -19.3697   17.6370   13.9120 C   0  0  0  0  0  0  0  0  0  0  0  0
  -19.3642   16.3807   13.2677 O   0  0  0  0  0  0  0  0  0  0  0  0
  1  2  2  0
  2  3  1  0
  2  4  1  0
  4  5  2  0
  4 11  1  0
  5  6  1  0
  7  6  1  6
  6  8  2  0
  8  9  1  0
  9 10  2  0
  9 11  1  0
 11 12  1  0
M  END
$$$$
