
     RDKit          3D

 12 12  0  0  0  0  0  0  0  0999 V2000
  -20.8926   18.7181   11.9869 O   0  0  0  0  0  0  0  0  0  0  0  0
  -21.1501   18.7249   13.2116 C   0  0  0  0  0  0  0  0  0  0  0  0
  -22.3024   19.3630   13.6297 O   0  0  0  0  0  0  0  0  0  0  0  0
  -20.2460   18.0670   14.1918 C   0  0  0  0  0  0  0  0  0  0  0  0
  -20.5393   18.0036   15.4197 N   0  0  0  0  0  0  0  0  0  0  0  0
  -19.7949   17.4187   16.4677 C   0  0  0  0  0  0  0  0  0  0  0  0
  -20.2226   17.3945   17.8770 C   0  0  0  0  0  0  0  0  0  0  0  0
  -18.6410   16.8679   16.1060 C   0  0  0  0  0  0  0  0  0  0  0  0
  -18.2053   16.8835   14.7209 C   0  0  0  0  0  0  0  0  0  0  0  0
  -17.0833   16.3333   14.4512 O   0  0  0  0  0  0  0  0  0  0  0  0
  -19.0078   17.5033   13.6510 C   0  0  0  0  0  0  0  0  0  0  0  0
  -19.3464   16.5509   12.6582 O   0  0  0  0  0  0  0  0  0  0  0  0
  1  2  2  0
  2  3  1  0
  2  4  1  0
  4  5  2  0
  4 11  1  0
  5  6  1  0
  6  7  1  0
  6  8  2  0
  8  9  1  0
  9 10  2  0
  9 11  1  0
 11 12  1  0
M  END
$$$$
