
     RDKit          3D

 12 12  0  0  0  0  0  0  0  0999 V2000
  -17.6490   15.7407   14.7004 O   0  0  0  0  0  0  0  0  0  0  0  0
  -18.2418   16.4814   15.5167 C   0  0  0  0  0  0  0  0  0  0  0  0
  -17.8011   16.4884   16.8264 O   0  0  0  0  0  0  0  0  0  0  0  0
  -19.3870   17.3305   15.0943 C   0  0  0  0  0  0  0  0  0  0  0  0
  -19.9910   18.0783   15.9151 N   0  0  0  0  0  0  0  0  0  0  0  0
  -21.0860   18.9370   15.6739 C   0  0  0  0  0  0  0  0  0  0  0  0
  -21.7263   19.7751   16.7022 C   0  0  0  0  0  0  0  0  0  0  0  0
  -21.5300   18.9533   14.4216 C   0  0  0  0  0  0  0  0  0  0  0  0
  -20.9097   18.1330   13.3965 C   0  0  0  0  0  0  0  0  0  0  0  0
  -21.3931   18.2030   12.2150 O   0  0  0  0  0  0  0  0  0  0  0  0
  -19.7670   17.2469   13.6829 C   0  0  0  0  0  0  0  0  0  0  0  0
  -18.6437   17.6017   12.8958 O   0  0  0  0  0  0  0  0  0  0  0  0
  1  2  2  0
  2  3  1  0
  2  4  1  0
  4  5  2  0
  4 11  1  0
  5  6  1  0
  6  7  1  0
  6  8  2  0
  8  9  1  0
  9 10  2  0
  9 11  1  0
 11 12  1  0
M  END
$$$$
