
     RDKit          3D

 12 12  0  0  0  0  0  0  0  0999 V2000
  -17.4755   15.4967   14.6329 O   0  0  0  0  0  0  0  0  0  0  0  0
  -18.0774   16.2408   15.4393 C   0  0  0  0  0  0  0  0  0  0  0  0
  -17.6518   16.2529   16.7540 O   0  0  0  0  0  0  0  0  0  0  0  0
  -19.2174   17.0886   15.0004 C   0  0  0  0  0  0  0  0  0  0  0  0
  -19.8431   17.8250   15.8153 N   0  0  0  0  0  0  0  0  0  0  0  0
  -20.9369   18.6808   15.5588 C   0  0  0  0  0  0  0  0  0  0  0  0
  -21.6038   19.5052   16.5812 C   0  0  0  0  0  0  0  0  0  0  0  0
  -21.3534   18.7077   14.2972 C   0  0  0  0  0  0  0  0  0  0  0  0
  -20.7066   17.9009   13.2778 C   0  0  0  0  0  0  0  0  0  0  0  0
  -21.1643   17.9807   12.0867 O   0  0  0  0  0  0  0  0  0  0  0  0
  -19.5659   17.0175   13.5803 C   0  0  0  0  0  0  0  0  0  0  0  0
  -18.4275   17.3858   12.8216 O   0  0  0  0  0  0  0  0  0  0  0  0
  1  2  2  0
  2  3  1  0
  2  4  1  0
  4  5  2  0
  4 11  1  0
  5  6  1  0
  6  7  1  0
  6  8  2  0
  8  9  1  0
  9 10  2  0
  9 11  1  0
 11 12  1  0
M  END
$$$$
