
     RDKit          3D

 12 12  0  0  0  0  0  0  0  0999 V2000
  -16.8922   16.2657   14.7258 O   0  0  0  0  0  0  0  0  0  0  0  0
  -17.7817   16.4595   15.5824 C   0  0  0  0  0  0  0  0  0  0  0  0
  -17.6068   16.0912   16.8946 O   0  0  0  0  0  0  0  0  0  0  0  0
  -19.0464   17.1036   15.1489 C   0  0  0  0  0  0  0  0  0  0  0  0
  -19.9643   17.2544   16.0191 N   0  0  0  0  0  0  0  0  0  0  0  0
  -21.2375   17.8441   15.8020 C   0  0  0  0  0  0  0  0  0  0  0  0
  -22.2327   17.9701   16.8860 C   0  0  0  0  0  0  0  0  0  0  0  0
  -21.4946   18.2756   14.5889 C   0  0  0  0  0  0  0  0  0  0  0  0
  -20.5227   18.1543   13.5240 C   0  0  0  0  0  0  0  0  0  0  0  0
  -20.8578   18.5993   12.3822 O   0  0  0  0  0  0  0  0  0  0  0  0
  -19.2085   17.5436   13.7550 C   0  0  0  0  0  0  0  0  0  0  0  0
  -18.9877   16.4795   12.8538 O   0  0  0  0  0  0  0  0  0  0  0  0
  1  2  2  0
  2  3  1  0
  2  4  1  0
  4  5  2  0
  4 11  1  0
  5  6  1  0
  7  6  1  6
  6  8  2  0
  8  9  1  0
  9 10  2  0
  9 11  1  0
 11 12  1  0
M  END
$$$$
