
     RDKit          3D

 12 12  0  0  0  0  0  0  0  0999 V2000
  -20.8995   18.4828   11.9628 O   0  0  0  0  0  0  0  0  0  0  0  0
  -21.1211   18.5720   13.1913 C   0  0  0  0  0  0  0  0  0  0  0  0
  -22.2692   19.2243   13.5988 O   0  0  0  0  0  0  0  0  0  0  0  0
  -20.1795   17.9946   14.1869 C   0  0  0  0  0  0  0  0  0  0  0  0
  -20.4300   18.0245   15.4255 N   0  0  0  0  0  0  0  0  0  0  0  0
  -19.6463   17.5246   16.4887 C   0  0  0  0  0  0  0  0  0  0  0  0
  -20.0251   17.6070   17.9097 C   0  0  0  0  0  0  0  0  0  0  0  0
  -18.5020   16.9520   16.1304 C   0  0  0  0  0  0  0  0  0  0  0  0
  -18.1143   16.8630   14.7338 C   0  0  0  0  0  0  0  0  0  0  0  0
  -16.9987   16.2978   14.4682 O   0  0  0  0  0  0  0  0  0  0  0  0
  -18.9571   17.3958   13.6481 C   0  0  0  0  0  0  0  0  0  0  0  0
  -19.3235   16.3688   12.7435 O   0  0  0  0  0  0  0  0  0  0  0  0
  1  2  2  0
  2  3  1  0
  2  4  1  0
  4  5  2  0
  4 11  1  0
  5  6  1  0
  6  7  1  0
  6  8  2  0
  8  9  1  0
  9 10  2  0
  9 11  1  0
 11 12  1  0
M  END
$$$$
