
     RDKit          3D

 12 12  0  0  0  0  0  0  0  0999 V2000
  -20.8825   18.9462   12.2851 O   0  0  0  0  0  0  0  0  0  0  0  0
  -21.0892   18.9508   13.5194 C   0  0  0  0  0  0  0  0  0  0  0  0
  -22.2039   19.6192   13.9890 O   0  0  0  0  0  0  0  0  0  0  0  0
  -20.1653   18.2589   14.4570 C   0  0  0  0  0  0  0  0  0  0  0  0
  -20.3878   18.2311   15.7009 N   0  0  0  0  0  0  0  0  0  0  0  0
  -19.6151   17.6222   16.7142 C   0  0  0  0  0  0  0  0  0  0  0  0
  -19.9585   17.6438   18.1464 C   0  0  0  0  0  0  0  0  0  0  0  0
  -18.5168   17.0023   16.2957 C   0  0  0  0  0  0  0  0  0  0  0  0
  -18.1644   16.9720   14.8874 C   0  0  0  0  0  0  0  0  0  0  0  0
  -17.0923   16.3560   14.5625 O   0  0  0  0  0  0  0  0  0  0  0  0
  -18.9944   17.6188   13.8549 C   0  0  0  0  0  0  0  0  0  0  0  0
  -19.4433   16.6714   12.9020 O   0  0  0  0  0  0  0  0  0  0  0  0
  1  2  2  0
  2  3  1  0
  2  4  1  0
  4  5  2  0
  4 11  1  0
  5  6  1  0
  6  7  1  0
  6  8  2  0
  8  9  1  0
  9 10  2  0
  9 11  1  0
 11 12  1  0
M  END
$$$$
