
     RDKit          3D

 12 12  0  0  0  0  0  0  0  0999 V2000
  -17.2210   15.4681   14.7006 O   0  0  0  0  0  0  0  0  0  0  0  0
  -17.8130   16.2184   15.5086 C   0  0  0  0  0  0  0  0  0  0  0  0
  -17.3979   16.2101   16.8267 O   0  0  0  0  0  0  0  0  0  0  0  0
  -18.9307   17.0947   15.0680 C   0  0  0  0  0  0  0  0  0  0  0  0
  -19.5306   17.8559   15.8794 N   0  0  0  0  0  0  0  0  0  0  0  0
  -20.6008   18.7403   15.6209 C   0  0  0  0  0  0  0  0  0  0  0  0
  -21.2383   19.5925   16.6392 C   0  0  0  0  0  0  0  0  0  0  0  0
  -21.0231   18.7680   14.3613 C   0  0  0  0  0  0  0  0  0  0  0  0
  -20.4052   17.9341   13.3458 C   0  0  0  0  0  0  0  0  0  0  0  0
  -20.8669   18.0164   12.1564 O   0  0  0  0  0  0  0  0  0  0  0  0
  -19.2887   17.0210   13.6504 C   0  0  0  0  0  0  0  0  0  0  0  0
  -18.1443   17.3498   12.8826 O   0  0  0  0  0  0  0  0  0  0  0  0
  1  2  2  0
  2  3  1  0
  2  4  1  0
  4  5  2  0
  4 11  1  0
  5  6  1  0
  6  7  1  0
  6  8  2  0
  8  9  1  0
  9 10  2  0
  9 11  1  0
 11 12  1  0
M  END
$$$$
