
     RDKit          3D

 12 12  0  0  0  0  0  0  0  0999 V2000
  -17.1333   16.1173   14.9002 O   0  0  0  0  0  0  0  0  0  0  0  0
  -17.9024   16.5871   15.7664 C   0  0  0  0  0  0  0  0  0  0  0  0
  -17.6382   16.4548   17.1084 O   0  0  0  0  0  0  0  0  0  0  0  0
  -19.1220   17.2995   15.3113 C   0  0  0  0  0  0  0  0  0  0  0  0
  -19.9375   17.7078   16.2006 N   0  0  0  0  0  0  0  0  0  0  0  0
  -21.1524   18.4049   15.9680 C   0  0  0  0  0  0  0  0  0  0  0  0
  -22.0283   18.8348   17.0768 C   0  0  0  0  0  0  0  0  0  0  0  0
  -21.4666   18.6530   14.7176 C   0  0  0  0  0  0  0  0  0  0  0  0
  -20.6115   18.2338   13.6283 C   0  0  0  0  0  0  0  0  0  0  0  0
  -20.9950   18.5167   12.4507 O   0  0  0  0  0  0  0  0  0  0  0  0
  -19.3571   17.5136   13.8754 C   0  0  0  0  0  0  0  0  0  0  0  0
  -19.3348   16.2931   13.1660 O   0  0  0  0  0  0  0  0  0  0  0  0
  1  2  2  0
  2  3  1  0
  2  4  1  0
  4  5  2  0
  4 11  1  0
  5  6  1  0
  7  6  1  6
  6  8  2  0
  8  9  1  0
  9 10  2  0
  9 11  1  0
 11 12  1  0
M  END
$$$$
