
     RDKit          3D

 12 12  0  0  0  0  0  0  0  0999 V2000
  -17.8369   16.1697   16.6212 O   0  0  0  0  0  0  0  0  0  0  0  0
  -18.1412   16.1896   15.4075 C   0  0  0  0  0  0  0  0  0  0  0  0
  -17.3884   15.4253   14.5363 O   0  0  0  0  0  0  0  0  0  0  0  0
  -19.2785   17.0098   14.9125 C   0  0  0  0  0  0  0  0  0  0  0  0
  -19.9396   17.7565   15.6891 N   0  0  0  0  0  0  0  0  0  0  0  0
  -21.0365   18.5897   15.3776 C   0  0  0  0  0  0  0  0  0  0  0  0
  -21.7467   19.4288   16.3581 C   0  0  0  0  0  0  0  0  0  0  0  0
  -21.4133   18.5801   14.1034 C   0  0  0  0  0  0  0  0  0  0  0  0
  -20.7236   17.7584   13.1248 C   0  0  0  0  0  0  0  0  0  0  0  0
  -21.1446   17.8027   11.9184 O   0  0  0  0  0  0  0  0  0  0  0  0
  -19.5809   16.8994   13.4844 C   0  0  0  0  0  0  0  0  0  0  0  0
  -18.4244   17.2658   12.7528 O   0  0  0  0  0  0  0  0  0  0  0  0
  1  2  2  0
  2  3  1  0
  2  4  1  0
  4  5  2  0
  4 11  1  0
  5  6  1  0
  6  7  1  0
  6  8  2  0
  8  9  1  0
  9 10  2  0
  9 11  1  0
 11 12  1  0
M  END
$$$$
