
     RDKit          3D

 12 12  0  0  0  0  0  0  0  0999 V2000
  -20.9478   18.9603   11.9350 O   0  0  0  0  0  0  0  0  0  0  0  0
  -21.2301   18.9210   13.1536 C   0  0  0  0  0  0  0  0  0  0  0  0
  -22.3768   19.5662   13.5761 O   0  0  0  0  0  0  0  0  0  0  0  0
  -20.3602   18.2024   14.1222 C   0  0  0  0  0  0  0  0  0  0  0  0
  -20.6851   18.0840   15.3380 N   0  0  0  0  0  0  0  0  0  0  0  0
  -19.9756   17.4376   16.3739 C   0  0  0  0  0  0  0  0  0  0  0  0
  -20.4388   17.3516   17.7696 C   0  0  0  0  0  0  0  0  0  0  0  0
  -18.8210   16.8872   16.0140 C   0  0  0  0  0  0  0  0  0  0  0  0
  -18.3505   16.9633   14.6424 C   0  0  0  0  0  0  0  0  0  0  0  0
  -17.2300   16.4095   14.3735 O   0  0  0  0  0  0  0  0  0  0  0  0
  -19.1171   17.6466   13.5848 C   0  0  0  0  0  0  0  0  0  0  0  0
  -19.4441   16.7489   12.5387 O   0  0  0  0  0  0  0  0  0  0  0  0
  1  2  2  0
  2  3  1  0
  2  4  1  0
  4  5  2  0
  4 11  1  0
  5  6  1  0
  6  7  1  0
  6  8  2  0
  8  9  1  0
  9 10  2  0
  9 11  1  0
 11 12  1  0
M  END
$$$$
