
     RDKit          3D

 12 12  0  0  0  0  0  0  0  0999 V2000
  -20.9275   18.7425   12.1770 O   0  0  0  0  0  0  0  0  0  0  0  0
  -21.1642   18.8576   13.4005 C   0  0  0  0  0  0  0  0  0  0  0  0
  -22.2836   19.5730   13.7813 O   0  0  0  0  0  0  0  0  0  0  0  0
  -20.2700   18.2445   14.4183 C   0  0  0  0  0  0  0  0  0  0  0  0
  -20.5463   18.2893   15.6509 N   0  0  0  0  0  0  0  0  0  0  0  0
  -19.8080   17.7604   16.7325 C   0  0  0  0  0  0  0  0  0  0  0  0
  -20.2142   17.8637   18.1446 C   0  0  0  0  0  0  0  0  0  0  0  0
  -18.6813   17.1388   16.4011 C   0  0  0  0  0  0  0  0  0  0  0  0
  -18.2671   17.0286   15.0137 C   0  0  0  0  0  0  0  0  0  0  0  0
  -17.1708   16.4159   14.7743 O   0  0  0  0  0  0  0  0  0  0  0  0
  -19.0625   17.5927   13.9082 C   0  0  0  0  0  0  0  0  0  0  0  0
  -19.4519   16.5790   12.9984 O   0  0  0  0  0  0  0  0  0  0  0  0
  1  2  2  0
  2  3  1  0
  2  4  1  0
  4  5  2  0
  4 11  1  0
  5  6  1  0
  6  7  1  0
  6  8  2  0
  8  9  1  0
  9 10  2  0
  9 11  1  0
 11 12  1  0
M  END
$$$$
