
     RDKit          3D

 12 12  0  0  0  0  0  0  0  0999 V2000
  -21.3313   18.6798   12.2692 O   0  0  0  0  0  0  0  0  0  0  0  0
  -21.4639   18.9076   13.4911 C   0  0  0  0  0  0  0  0  0  0  0  0
  -22.3773   19.8230   13.9556 O   0  0  0  0  0  0  0  0  0  0  0  0
  -20.6044   18.1602   14.4425 C   0  0  0  0  0  0  0  0  0  0  0  0
  -20.7499   18.3970   15.6856 N   0  0  0  0  0  0  0  0  0  0  0  0
  -20.0270   17.7888   16.7455 C   0  0  0  0  0  0  0  0  0  0  0  0
  -20.2758   18.1378   18.1589 C   0  0  0  0  0  0  0  0  0  0  0  0
  -19.1219   16.8972   16.4143 C   0  0  0  0  0  0  0  0  0  0  0  0
  -18.8748   16.5522   15.0310 C   0  0  0  0  0  0  0  0  0  0  0  0
  -17.9804   15.6790   14.8041 O   0  0  0  0  0  0  0  0  0  0  0  0
  -19.6254   17.1845   13.9401 C   0  0  0  0  0  0  0  0  0  0  0  0
  -18.7461   17.7762   13.0073 O   0  0  0  0  0  0  0  0  0  0  0  0
  1  2  2  0
  2  3  1  0
  2  4  1  0
  4  5  2  0
  4 11  1  0
  5  6  1  0
  7  6  1  6
  6  8  2  0
  8  9  1  0
  9 10  2  0
  9 11  1  0
 11 12  1  0
M  END
$$$$
