
     RDKit          3D

 12 12  0  0  0  0  0  0  0  0999 V2000
  -17.7627   16.0585   16.7112 O   0  0  0  0  0  0  0  0  0  0  0  0
  -18.0360   16.1533   15.4936 C   0  0  0  0  0  0  0  0  0  0  0  0
  -17.2588   15.4457   14.5963 O   0  0  0  0  0  0  0  0  0  0  0  0
  -19.1627   17.0012   15.0215 C   0  0  0  0  0  0  0  0  0  0  0  0
  -19.8424   17.7012   15.8250 N   0  0  0  0  0  0  0  0  0  0  0  0
  -20.9330   18.5512   15.5377 C   0  0  0  0  0  0  0  0  0  0  0  0
  -21.6666   19.3315   16.5490 C   0  0  0  0  0  0  0  0  0  0  0  0
  -21.2805   18.6161   14.2568 C   0  0  0  0  0  0  0  0  0  0  0  0
  -20.5675   17.8531   13.2478 C   0  0  0  0  0  0  0  0  0  0  0  0
  -20.9608   17.9678   12.0368 O   0  0  0  0  0  0  0  0  0  0  0  0
  -19.4322   16.9744   13.5828 C   0  0  0  0  0  0  0  0  0  0  0  0
  -18.2597   17.3829   12.9005 O   0  0  0  0  0  0  0  0  0  0  0  0
  1  2  2  0
  2  3  1  0
  2  4  1  0
  4  5  2  0
  4 11  1  0
  5  6  1  0
  6  7  1  0
  6  8  2  0
  8  9  1  0
  9 10  2  0
  9 11  1  0
 11 12  1  0
M  END
$$$$
