
     RDKit          3D

 12 12  0  0  0  0  0  0  0  0999 V2000
  -17.7220   15.5604   14.8449 O   0  0  0  0  0  0  0  0  0  0  0  0
  -18.3205   16.3150   15.6440 C   0  0  0  0  0  0  0  0  0  0  0  0
  -17.9041   16.3273   16.9617 O   0  0  0  0  0  0  0  0  0  0  0  0
  -19.4470   17.1748   15.1936 C   0  0  0  0  0  0  0  0  0  0  0  0
  -20.0700   17.9215   16.0011 N   0  0  0  0  0  0  0  0  0  0  0  0
  -21.1515   18.7893   15.7333 C   0  0  0  0  0  0  0  0  0  0  0  0
  -21.8163   19.6252   16.7478 C   0  0  0  0  0  0  0  0  0  0  0  0
  -21.5580   18.8167   14.4686 C   0  0  0  0  0  0  0  0  0  0  0  0
  -20.9132   17.9987   13.4568 C   0  0  0  0  0  0  0  0  0  0  0  0
  -21.3608   18.0798   12.2620 O   0  0  0  0  0  0  0  0  0  0  0  0
  -19.7855   17.1029   13.7711 C   0  0  0  0  0  0  0  0  0  0  0  0
  -18.6370   17.4549   13.0198 O   0  0  0  0  0  0  0  0  0  0  0  0
  1  2  2  0
  2  3  1  0
  2  4  1  0
  4  5  2  0
  4 11  1  0
  5  6  1  0
  6  7  1  0
  6  8  2  0
  8  9  1  0
  9 10  2  0
  9 11  1  0
 11 12  1  0
M  END
$$$$
