
     RDKit          3D

 12 12  0  0  0  0  0  0  0  0999 V2000
  -16.8071   16.2279   14.5846 O   0  0  0  0  0  0  0  0  0  0  0  0
  -17.6266   16.6014   15.4515 C   0  0  0  0  0  0  0  0  0  0  0  0
  -17.4003   16.3919   16.7905 O   0  0  0  0  0  0  0  0  0  0  0  0
  -18.8645   17.2842   15.0003 C   0  0  0  0  0  0  0  0  0  0  0  0
  -19.7310   17.5867   15.8837 N   0  0  0  0  0  0  0  0  0  0  0  0
  -20.9713   18.2384   15.6536 C   0  0  0  0  0  0  0  0  0  0  0  0
  -21.9070   18.5435   16.7548 C   0  0  0  0  0  0  0  0  0  0  0  0
  -21.2533   18.5605   14.4124 C   0  0  0  0  0  0  0  0  0  0  0  0
  -20.3397   18.2636   13.3305 C   0  0  0  0  0  0  0  0  0  0  0  0
  -20.6954   18.6118   12.1617 O   0  0  0  0  0  0  0  0  0  0  0  0
  -19.0593   17.5898   13.5750 C   0  0  0  0  0  0  0  0  0  0  0  0
  -18.9488   16.4263   12.7829 O   0  0  0  0  0  0  0  0  0  0  0  0
  1  2  2  0
  2  3  1  0
  2  4  1  0
  4  5  2  0
  4 11  1  0
  5  6  1  0
  7  6  1  6
  6  8  2  0
  8  9  1  0
  9 10  2  0
  9 11  1  0
 11 12  1  0
M  END
$$$$
