
     RDKit          3D

 12 12  0  0  0  0  0  0  0  0999 V2000
  -17.1284   16.2642   14.4853 O   0  0  0  0  0  0  0  0  0  0  0  0
  -18.0021   16.4961   15.3486 C   0  0  0  0  0  0  0  0  0  0  0  0
  -17.8133   16.1633   16.6683 O   0  0  0  0  0  0  0  0  0  0  0  0
  -19.2637   17.1460   14.9147 C   0  0  0  0  0  0  0  0  0  0  0  0
  -20.1705   17.3260   15.7909 N   0  0  0  0  0  0  0  0  0  0  0  0
  -21.4388   17.9264   15.5745 C   0  0  0  0  0  0  0  0  0  0  0  0
  -22.4210   18.0870   16.6658 C   0  0  0  0  0  0  0  0  0  0  0  0
  -21.7036   18.3355   14.3553 C   0  0  0  0  0  0  0  0  0  0  0  0
  -20.7445   18.1802   13.2832 C   0  0  0  0  0  0  0  0  0  0  0  0
  -21.0863   18.6052   12.1359 O   0  0  0  0  0  0  0  0  0  0  0  0
  -19.4352   17.5588   13.5136 C   0  0  0  0  0  0  0  0  0  0  0  0
  -19.2365   16.4735   12.6327 O   0  0  0  0  0  0  0  0  0  0  0  0
  1  2  2  0
  2  3  1  0
  2  4  1  0
  4  5  2  0
  4 11  1  0
  5  6  1  0
  7  6  1  6
  6  8  2  0
  8  9  1  0
  9 10  2  0
  9 11  1  0
 11 12  1  0
M  END
$$$$
