
     RDKit          3D

 12 12  0  0  0  0  0  0  0  0999 V2000
  -21.5175   20.1809   13.5374 O   0  0  0  0  0  0  0  0  0  0  0  0
  -21.2271   19.8114   14.6957 C   0  0  0  0  0  0  0  0  0  0  0  0
  -21.6412   20.5175   15.7993 O   0  0  0  0  0  0  0  0  0  0  0  0
  -20.4158   18.5794   14.8576 C   0  0  0  0  0  0  0  0  0  0  0  0
  -19.9607   18.3167   16.0179 N   0  0  0  0  0  0  0  0  0  0  0  0
  -19.1688   17.1933   16.3739 C   0  0  0  0  0  0  0  0  0  0  0  0
  -18.6912   16.9833   17.7556 C   0  0  0  0  0  0  0  0  0  0  0  0
  -18.8769   16.3433   15.4168 C   0  0  0  0  0  0  0  0  0  0  0  0
  -19.3426   16.5450   14.0618 C   0  0  0  0  0  0  0  0  0  0  0  0
  -19.0118   15.6713   13.2010 O   0  0  0  0  0  0  0  0  0  0  0  0
  -20.1608   17.7083   13.7005 C   0  0  0  0  0  0  0  0  0  0  0  0
  -19.5656   18.4267   12.6408 O   0  0  0  0  0  0  0  0  0  0  0  0
  1  2  2  0
  2  3  1  0
  2  4  1  0
  4  5  2  0
  4 11  1  0
  5  6  1  0
  7  6  1  6
  6  8  2  0
  8  9  1  0
  9 10  2  0
  9 11  1  0
 11 12  1  0
M  END
$$$$
