
     RDKit          3D

 12 12  0  0  0  0  0  0  0  0999 V2000
  -17.6919   15.5200   14.7362 O   0  0  0  0  0  0  0  0  0  0  0  0
  -18.2992   16.2561   15.5459 C   0  0  0  0  0  0  0  0  0  0  0  0
  -17.8863   16.2507   16.8647 O   0  0  0  0  0  0  0  0  0  0  0  0
  -19.4322   17.1130   15.1065 C   0  0  0  0  0  0  0  0  0  0  0  0
  -20.0533   17.8533   15.9213 N   0  0  0  0  0  0  0  0  0  0  0  0
  -21.1402   18.7176   15.6643 C   0  0  0  0  0  0  0  0  0  0  0  0
  -21.8022   19.5460   16.6866 C   0  0  0  0  0  0  0  0  0  0  0  0
  -21.5548   18.7490   14.4022 C   0  0  0  0  0  0  0  0  0  0  0  0
  -20.9129   17.9384   13.3827 C   0  0  0  0  0  0  0  0  0  0  0  0
  -21.3684   18.0228   12.1912 O   0  0  0  0  0  0  0  0  0  0  0  0
  -19.7793   17.0460   13.6858 C   0  0  0  0  0  0  0  0  0  0  0  0
  -18.6372   17.4064   12.9290 O   0  0  0  0  0  0  0  0  0  0  0  0
  1  2  2  0
  2  3  1  0
  2  4  1  0
  4  5  2  0
  4 11  1  0
  5  6  1  0
  6  7  1  0
  6  8  2  0
  8  9  1  0
  9 10  2  0
  9 11  1  0
 11 12  1  0
M  END
$$$$
