
     RDKit          3D

 12 12  0  0  0  0  0  0  0  0999 V2000
  -17.1220   16.1038   14.7350 O   0  0  0  0  0  0  0  0  0  0  0  0
  -17.9350   16.4548   15.6172 C   0  0  0  0  0  0  0  0  0  0  0  0
  -17.6945   16.2196   16.9494 O   0  0  0  0  0  0  0  0  0  0  0  0
  -19.1811   17.1394   15.1919 C   0  0  0  0  0  0  0  0  0  0  0  0
  -20.0349   17.4304   16.0913 N   0  0  0  0  0  0  0  0  0  0  0  0
  -21.2800   18.0815   15.8868 C   0  0  0  0  0  0  0  0  0  0  0  0
  -22.1997   18.3727   17.0051 C   0  0  0  0  0  0  0  0  0  0  0  0
  -21.5814   18.4161   14.6534 C   0  0  0  0  0  0  0  0  0  0  0  0
  -20.6835   18.1328   13.5548 C   0  0  0  0  0  0  0  0  0  0  0  0
  -21.0574   18.4925   12.3953 O   0  0  0  0  0  0  0  0  0  0  0  0
  -19.3980   17.4595   13.7730 C   0  0  0  0  0  0  0  0  0  0  0  0
  -19.2968   16.3048   12.9670 O   0  0  0  0  0  0  0  0  0  0  0  0
  1  2  2  0
  2  3  1  0
  2  4  1  0
  4  5  2  0
  4 11  1  0
  5  6  1  0
  7  6  1  6
  6  8  2  0
  8  9  1  0
  9 10  2  0
  9 11  1  0
 11 12  1  0
M  END
$$$$
