
     RDKit          3D

 12 12  0  0  0  0  0  0  0  0999 V2000
  -17.3069   15.5421   14.5994 O   0  0  0  0  0  0  0  0  0  0  0  0
  -17.9483   16.2552   15.4033 C   0  0  0  0  0  0  0  0  0  0  0  0
  -17.5801   16.2253   16.7349 O   0  0  0  0  0  0  0  0  0  0  0  0
  -19.0742   17.1110   14.9439 C   0  0  0  0  0  0  0  0  0  0  0  0
  -19.6953   17.8680   15.7432 N   0  0  0  0  0  0  0  0  0  0  0  0
  -20.7761   18.7339   15.4663 C   0  0  0  0  0  0  0  0  0  0  0  0
  -21.4386   19.5828   16.4714 C   0  0  0  0  0  0  0  0  0  0  0  0
  -21.1841   18.7467   14.2017 C   0  0  0  0  0  0  0  0  0  0  0  0
  -20.5415   17.9159   13.1991 C   0  0  0  0  0  0  0  0  0  0  0  0
  -20.9905   17.9831   12.0040 O   0  0  0  0  0  0  0  0  0  0  0  0
  -19.4145   17.0224   13.5228 C   0  0  0  0  0  0  0  0  0  0  0  0
  -18.2665   17.3639   12.7660 O   0  0  0  0  0  0  0  0  0  0  0  0
  1  2  2  0
  2  3  1  0
  2  4  1  0
  4  5  2  0
  4 11  1  0
  5  6  1  0
  6  7  1  0
  6  8  2  0
  8  9  1  0
  9 10  2  0
  9 11  1  0
 11 12  1  0
M  END
$$$$
