
     RDKit          3D

 12 12  0  0  0  0  0  0  0  0999 V2000
  -17.4826   16.2773   16.8149 O   0  0  0  0  0  0  0  0  0  0  0  0
  -17.6551   16.4364   15.5872 C   0  0  0  0  0  0  0  0  0  0  0  0
  -16.7330   15.9940   14.6695 O   0  0  0  0  0  0  0  0  0  0  0  0
  -18.8913   17.1213   15.1343 C   0  0  0  0  0  0  0  0  0  0  0  0
  -19.7618   17.4186   16.0154 N   0  0  0  0  0  0  0  0  0  0  0  0
  -21.0013   18.0711   15.7833 C   0  0  0  0  0  0  0  0  0  0  0  0
  -21.9421   18.3697   16.8820 C   0  0  0  0  0  0  0  0  0  0  0  0
  -21.2780   18.3999   14.5426 C   0  0  0  0  0  0  0  0  0  0  0  0
  -20.3593   18.1093   13.4632 C   0  0  0  0  0  0  0  0  0  0  0  0
  -20.7099   18.4638   12.2948 O   0  0  0  0  0  0  0  0  0  0  0  0
  -19.0798   17.4346   13.7098 C   0  0  0  0  0  0  0  0  0  0  0  0
  -18.9653   16.2756   12.9117 O   0  0  0  0  0  0  0  0  0  0  0  0
  1  2  2  0
  2  3  1  0
  2  4  1  0
  4  5  2  0
  4 11  1  0
  5  6  1  0
  7  6  1  6
  6  8  2  0
  8  9  1  0
  9 10  2  0
  9 11  1  0
 11 12  1  0
M  END
$$$$
