
     RDKit          3D

 12 12  0  0  0  0  0  0  0  0999 V2000
  -16.9683   16.1631   14.6002 O   0  0  0  0  0  0  0  0  0  0  0  0
  -17.7128   16.6739   15.4647 C   0  0  0  0  0  0  0  0  0  0  0  0
  -17.4160   16.5960   16.8041 O   0  0  0  0  0  0  0  0  0  0  0  0
  -18.9392   17.3751   15.0102 C   0  0  0  0  0  0  0  0  0  0  0  0
  -19.7370   17.8131   15.9013 N   0  0  0  0  0  0  0  0  0  0  0  0
  -20.9546   18.5059   15.6697 C   0  0  0  0  0  0  0  0  0  0  0  0
  -21.8088   18.9725   16.7806 C   0  0  0  0  0  0  0  0  0  0  0  0
  -21.2915   18.7157   14.4182 C   0  0  0  0  0  0  0  0  0  0  0  0
  -20.4578   18.2604   13.3268 C   0  0  0  0  0  0  0  0  0  0  0  0
  -20.8626   18.5076   12.1483 O   0  0  0  0  0  0  0  0  0  0  0  0
  -19.2005   17.5449   13.5730 C   0  0  0  0  0  0  0  0  0  0  0  0
  -19.1940   16.3029   12.9018 O   0  0  0  0  0  0  0  0  0  0  0  0
  1  2  2  0
  2  3  1  0
  2  4  1  0
  4  5  2  0
  4 11  1  0
  5  6  1  0
  7  6  1  6
  6  8  2  0
  8  9  1  0
  9 10  2  0
  9 11  1  0
 11 12  1  0
M  END
$$$$
