
     RDKit          3D

 12 12  0  0  0  0  0  0  0  0999 V2000
  -17.0935   16.1144   14.4671 O   0  0  0  0  0  0  0  0  0  0  0  0
  -17.9236   16.4240   15.3489 C   0  0  0  0  0  0  0  0  0  0  0  0
  -17.6842   16.1753   16.6789 O   0  0  0  0  0  0  0  0  0  0  0  0
  -19.1888   17.0738   14.9257 C   0  0  0  0  0  0  0  0  0  0  0  0
  -20.0492   17.3404   15.8264 N   0  0  0  0  0  0  0  0  0  0  0  0
  -21.3122   17.9566   15.6240 C   0  0  0  0  0  0  0  0  0  0  0  0
  -22.2382   18.2213   16.7437 C   0  0  0  0  0  0  0  0  0  0  0  0
  -21.6245   18.2834   14.3913 C   0  0  0  0  0  0  0  0  0  0  0  0
  -20.7205   18.0259   13.2913 C   0  0  0  0  0  0  0  0  0  0  0  0
  -21.1059   18.3758   12.1325 O   0  0  0  0  0  0  0  0  0  0  0  0
  -19.4164   17.3887   13.5074 C   0  0  0  0  0  0  0  0  0  0  0  0
  -19.2841   16.2377   12.7004 O   0  0  0  0  0  0  0  0  0  0  0  0
  1  2  2  0
  2  3  1  0
  2  4  1  0
  4  5  2  0
  4 11  1  0
  5  6  1  0
  7  6  1  6
  6  8  2  0
  8  9  1  0
  9 10  2  0
  9 11  1  0
 11 12  1  0
M  END
$$$$
