
     RDKit          3D

 12 12  0  0  0  0  0  0  0  0999 V2000
  -17.7942   16.3381   16.5975 O   0  0  0  0  0  0  0  0  0  0  0  0
  -18.1596   16.2921   15.4014 C   0  0  0  0  0  0  0  0  0  0  0  0
  -17.4591   15.4701   14.5392 O   0  0  0  0  0  0  0  0  0  0  0  0
  -19.3130   17.0965   14.9176 C   0  0  0  0  0  0  0  0  0  0  0  0
  -19.9557   17.8599   15.6934 N   0  0  0  0  0  0  0  0  0  0  0  0
  -21.0638   18.6818   15.3916 C   0  0  0  0  0  0  0  0  0  0  0  0
  -21.7502   19.5425   16.3702 C   0  0  0  0  0  0  0  0  0  0  0  0
  -21.4749   18.6397   14.1287 C   0  0  0  0  0  0  0  0  0  0  0  0
  -20.8088   17.7965   13.1521 C   0  0  0  0  0  0  0  0  0  0  0  0
  -21.2625   17.8098   11.9569 O   0  0  0  0  0  0  0  0  0  0  0  0
  -19.6536   16.9500   13.5014 C   0  0  0  0  0  0  0  0  0  0  0  0
  -18.5187   17.3020   12.7299 O   0  0  0  0  0  0  0  0  0  0  0  0
  1  2  2  0
  2  3  1  0
  2  4  1  0
  4  5  2  0
  4 11  1  0
  5  6  1  0
  6  7  1  0
  6  8  2  0
  8  9  1  0
  9 10  2  0
  9 11  1  0
 11 12  1  0
M  END
$$$$
