
     RDKit          3D

 12 12  0  0  0  0  0  0  0  0999 V2000
  -17.8044   16.2692   16.6434 O   0  0  0  0  0  0  0  0  0  0  0  0
  -17.9823   16.4928   15.4264 C   0  0  0  0  0  0  0  0  0  0  0  0
  -17.0395   16.1484   14.4881 O   0  0  0  0  0  0  0  0  0  0  0  0
  -19.2480   17.1459   15.0097 C   0  0  0  0  0  0  0  0  0  0  0  0
  -20.1132   17.3928   15.9113 N   0  0  0  0  0  0  0  0  0  0  0  0
  -21.3775   18.0083   15.7146 C   0  0  0  0  0  0  0  0  0  0  0  0
  -22.3094   18.2491   16.8349 C   0  0  0  0  0  0  0  0  0  0  0  0
  -21.6856   18.3566   14.4867 C   0  0  0  0  0  0  0  0  0  0  0  0
  -20.7758   18.1226   13.3863 C   0  0  0  0  0  0  0  0  0  0  0  0
  -21.1574   18.4924   12.2324 O   0  0  0  0  0  0  0  0  0  0  0  0
  -19.4705   17.4860   13.5963 C   0  0  0  0  0  0  0  0  0  0  0  0
  -19.3306   16.3506   12.7690 O   0  0  0  0  0  0  0  0  0  0  0  0
  1  2  2  0
  2  3  1  0
  2  4  1  0
  4  5  2  0
  4 11  1  0
  5  6  1  0
  7  6  1  6
  6  8  2  0
  8  9  1  0
  9 10  2  0
  9 11  1  0
 11 12  1  0
M  END
$$$$
