
     RDKit          3D

 12 12  0  0  0  0  0  0  0  0999 V2000
  -21.1037   18.3948   12.0292 O   0  0  0  0  0  0  0  0  0  0  0  0
  -21.3385   18.5280   13.2512 C   0  0  0  0  0  0  0  0  0  0  0  0
  -22.4899   19.1959   13.6226 O   0  0  0  0  0  0  0  0  0  0  0  0
  -20.4087   17.9853   14.2770 C   0  0  0  0  0  0  0  0  0  0  0  0
  -20.6719   18.0612   15.5110 N   0  0  0  0  0  0  0  0  0  0  0  0
  -19.9004   17.5988   16.5998 C   0  0  0  0  0  0  0  0  0  0  0  0
  -20.2936   17.7341   18.0129 C   0  0  0  0  0  0  0  0  0  0  0  0
  -18.7541   17.0108   16.2746 C   0  0  0  0  0  0  0  0  0  0  0  0
  -18.3523   16.8697   14.8864 C   0  0  0  0  0  0  0  0  0  0  0  0
  -17.2356   16.2926   14.6532 O   0  0  0  0  0  0  0  0  0  0  0  0
  -19.1825   17.3643   13.7732 C   0  0  0  0  0  0  0  0  0  0  0  0
  -19.5424   16.3057   12.9031 O   0  0  0  0  0  0  0  0  0  0  0  0
  1  2  2  0
  2  3  1  0
  2  4  1  0
  4  5  2  0
  4 11  1  0
  5  6  1  0
  6  7  1  0
  6  8  2  0
  8  9  1  0
  9 10  2  0
  9 11  1  0
 11 12  1  0
M  END
$$$$
