
     RDKit          3D

 12 12  0  0  0  0  0  0  0  0999 V2000
  -17.6930   15.5630   14.6076 O   0  0  0  0  0  0  0  0  0  0  0  0
  -18.2959   16.2995   15.4202 C   0  0  0  0  0  0  0  0  0  0  0  0
  -17.8532   16.3218   16.7291 O   0  0  0  0  0  0  0  0  0  0  0  0
  -19.4550   17.1281   14.9944 C   0  0  0  0  0  0  0  0  0  0  0  0
  -20.0714   17.8688   15.8124 N   0  0  0  0  0  0  0  0  0  0  0  0
  -21.1804   18.7084   15.5678 C   0  0  0  0  0  0  0  0  0  0  0  0
  -21.8347   19.5396   16.5928 C   0  0  0  0  0  0  0  0  0  0  0  0
  -21.6243   18.7127   14.3153 C   0  0  0  0  0  0  0  0  0  0  0  0
  -20.9902   17.8989   13.2934 C   0  0  0  0  0  0  0  0  0  0  0  0
  -21.4744   17.9566   12.1115 O   0  0  0  0  0  0  0  0  0  0  0  0
  -19.8331   17.0329   13.5833 C   0  0  0  0  0  0  0  0  0  0  0  0
  -18.7157   17.4033   12.7951 O   0  0  0  0  0  0  0  0  0  0  0  0
  1  2  2  0
  2  3  1  0
  2  4  1  0
  4  5  2  0
  4 11  1  0
  5  6  1  0
  6  7  1  0
  6  8  2  0
  8  9  1  0
  9 10  2  0
  9 11  1  0
 11 12  1  0
M  END
$$$$
