
     RDKit          3D

 12 12  0  0  0  0  0  0  0  0999 V2000
  -17.6190   15.6534   14.6278 O   0  0  0  0  0  0  0  0  0  0  0  0
  -18.1748   16.4422   15.4247 C   0  0  0  0  0  0  0  0  0  0  0  0
  -17.6980   16.4997   16.7205 O   0  0  0  0  0  0  0  0  0  0  0  0
  -19.3150   17.2943   14.9946 C   0  0  0  0  0  0  0  0  0  0  0  0
  -19.9186   18.0483   15.8100 N   0  0  0  0  0  0  0  0  0  0  0  0
  -21.0091   18.9106   15.5613 C   0  0  0  0  0  0  0  0  0  0  0  0
  -21.6493   19.7559   16.5836 C   0  0  0  0  0  0  0  0  0  0  0  0
  -21.4487   18.9232   14.3074 C   0  0  0  0  0  0  0  0  0  0  0  0
  -20.8284   18.0957   13.2880 C   0  0  0  0  0  0  0  0  0  0  0  0
  -21.3074   18.1626   12.1046 O   0  0  0  0  0  0  0  0  0  0  0  0
  -19.6904   17.2060   13.5824 C   0  0  0  0  0  0  0  0  0  0  0  0
  -18.5630   17.5525   12.7975 O   0  0  0  0  0  0  0  0  0  0  0  0
  1  2  2  0
  2  3  1  0
  2  4  1  0
  4  5  2  0
  4 11  1  0
  5  6  1  0
  6  7  1  0
  6  8  2  0
  8  9  1  0
  9 10  2  0
  9 11  1  0
 11 12  1  0
M  END
$$$$
