
     RDKit          3D

 23 24  0  0  0  0  0  0  0  0999 V2000
   -6.4776  -34.4714  -15.7935 C   0  0  1  0  0  0  0  0  0  0  0  0
   -6.1965  -35.6512  -14.9217 C   0  0  1  0  0  0  0  0  0  0  0  0
   -6.7055  -35.4354  -13.5079 C   0  0  2  0  0  0  0  0  0  0  0  0
   -6.5100  -33.9900  -13.1233 C   0  0  1  0  0  0  0  0  0  0  0  0
   -7.1504  -33.0416  -14.0910 C   0  0  1  0  0  0  0  0  0  0  0  0
   -6.3657  -31.7349  -14.2269 C   0  0  0  0  0  0  0  0  0  0  0  0
   -6.8647  -34.9288  -17.0261 O   0  0  0  0  0  0  0  0  0  0  0  0
   -6.9068  -36.7549  -15.4149 O   0  0  0  0  0  0  0  0  0  0  0  0
   -6.0513  -36.3027  -12.6617 O   0  0  0  0  0  0  0  0  0  0  0  0
   -7.0229  -33.8216  -11.8375 O   0  0  0  0  0  0  0  0  0  0  0  0
   -7.4297  -33.6041  -15.3165 O   0  0  0  0  0  0  0  0  0  0  0  0
   -6.5934  -30.9517  -13.0950 O   0  0  0  0  0  0  0  0  0  0  0  0
   -7.0250  -34.6203  -19.4076 C   0  0  0  0  0  0  0  0  0  0  0  0
   -6.5880  -34.0670  -18.0743 C   0  0  1  0  0  0  0  0  0  0  0  0
   -7.3332  -32.7829  -17.7844 C   0  0  2  0  0  0  0  0  0  0  0  0
   -6.2747  -31.6963  -17.8679 C   0  0  1  0  0  0  0  0  0  0  0  0
   -5.2447  -32.4371  -18.7308 C   0  0  1  0  0  0  0  0  0  0  0  0
   -3.8799  -31.7968  -18.5948 C   0  0  0  0  0  0  0  0  0  0  0  0
   -6.3842  -35.8113  -19.7276 O   0  0  0  0  0  0  0  0  0  0  0  0
   -5.2748  -33.6995  -18.1583 O   0  0  0  0  0  0  0  0  0  0  0  0
   -7.8220  -32.7577  -16.4801 O   0  0  0  0  0  0  0  0  0  0  0  0
   -6.8106  -30.6185  -18.5363 O   0  0  0  0  0  0  0  0  0  0  0  0
   -3.0228  -32.7732  -18.0830 O   0  0  0  0  0  0  0  0  0  0  0  0
  1  2  1  0
  1  7  1  6
  1 11  1  0
  2  3  1  0
  2  8  1  6
  3  4  1  0
  3  9  1  1
  5  4  1  0
  4 10  1  1
  5  6  1  6
 11  5  1  0
  6 12  1  0
 14  7  1  0
 14 13  1  6
 13 19  1  0
 14 15  1  0
 20 14  1  0
 16 15  1  0
 15 21  1  1
 17 16  1  0
 16 22  1  6
 17 18  1  1
 17 20  1  0
 23 18  1  0
M  END
$$$$
