
     RDKit          3D

 23 24  0  0  0  0  0  0  0  0999 V2000
   -6.9298  -32.9775  -16.1084 C   0  0  1  0  0  0  0  0  0  0  0  0
   -7.1404  -32.0003  -17.2419 C   0  0  1  0  0  0  0  0  0  0  0  0
   -7.4841  -32.6772  -18.5263 C   0  0  2  0  0  0  0  0  0  0  0  0
   -6.9728  -34.0991  -18.5329 C   0  0  1  0  0  0  0  0  0  0  0  0
   -7.4355  -34.8771  -17.3355 C   0  0  1  0  0  0  0  0  0  0  0  0
   -6.4591  -36.0164  -17.0637 C   0  0  0  0  0  0  0  0  0  0  0  0
   -7.2777  -32.3272  -14.9385 O   0  0  0  0  0  0  0  0  0  0  0  0
   -8.2030  -31.1618  -16.8738 O   0  0  0  0  0  0  0  0  0  0  0  0
   -6.9344  -31.9632  -19.5670 O   0  0  0  0  0  0  0  0  0  0  0  0
   -7.2655  -34.7469  -19.7267 O   0  0  0  0  0  0  0  0  0  0  0  0
   -7.6964  -34.1197  -16.2350 O   0  0  0  0  0  0  0  0  0  0  0  0
   -7.0461  -36.9675  -16.2155 O   0  0  0  0  0  0  0  0  0  0  0  0
   -6.9158  -31.9573  -12.5925 C   0  0  0  0  0  0  0  0  0  0  0  0
   -6.7378  -32.8818  -13.7856 C   0  0  1  0  0  0  0  0  0  0  0  0
   -7.4685  -34.1816  -13.5454 C   0  0  2  0  0  0  0  0  0  0  0  0
   -6.3191  -35.1689  -13.4013 C   0  0  1  0  0  0  0  0  0  0  0  0
   -5.1989  -34.2211  -13.0282 C   0  0  1  0  0  0  0  0  0  0  0  0
   -3.8401  -34.8662  -13.2161 C   0  0  0  0  0  0  0  0  0  0  0  0
   -6.3860  -30.6996  -12.9492 O   0  0  0  0  0  0  0  0  0  0  0  0
   -5.3957  -33.1733  -13.9134 O   0  0  0  0  0  0  0  0  0  0  0  0
   -8.2350  -34.5232  -14.6371 O   0  0  0  0  0  0  0  0  0  0  0  0
   -6.6102  -36.0924  -12.4307 O   0  0  0  0  0  0  0  0  0  0  0  0
   -3.6283  -34.9640  -14.6011 O   0  0  0  0  0  0  0  0  0  0  0  0
  1  2  1  0
  1  7  1  1
  1 11  1  0
  2  3  1  0
  2  8  1  1
  3  4  1  0
  3  9  1  6
  5  4  1  0
  4 10  1  6
  5  6  1  0
  5 11  1  1
  6 12  1  6
 14  7  1  6
 14 13  1  0
 13 19  1  6
 14 15  1  0
 20 14  1  0
 16 15  1  0
 15 21  1  6
 17 16  1  0
 16 22  1  1
 18 17  1  0
 17 20  1  6
 18 23  1  6
M  END
$$$$
