
     RDKit          3D

 23 24  0  0  0  0  0  0  0  0999 V2000
   -6.6039  -33.1440  -14.6548 C   0  0  1  0  0  0  0  0  0  0  0  0
   -6.8144  -31.8555  -13.9293 C   0  0  1  0  0  0  0  0  0  0  0  0
   -7.8905  -31.0120  -14.5887 C   0  0  2  0  0  0  0  0  0  0  0  0
   -7.8039  -31.1754  -16.0857 C   0  0  1  0  0  0  0  0  0  0  0  0
   -7.8842  -32.6084  -16.5173 C   0  0  1  0  0  0  0  0  0  0  0  0
   -7.0466  -32.8846  -17.7679 C   0  0  0  0  0  0  0  0  0  0  0  0
   -6.4222  -34.1363  -13.7270 O   0  0  0  0  0  0  0  0  0  0  0  0
   -7.2911  -32.1368  -12.6410 O   0  0  0  0  0  0  0  0  0  0  0  0
   -7.7385  -29.7033  -14.1882 O   0  0  0  0  0  0  0  0  0  0  0  0
   -8.8287  -30.4193  -16.6536 O   0  0  0  0  0  0  0  0  0  0  0  0
   -7.6158  -33.5073  -15.5093 O   0  0  0  0  0  0  0  0  0  0  0  0
   -7.5350  -34.0315  -18.3944 O   0  0  0  0  0  0  0  0  0  0  0  0
   -4.5075  -35.5634  -13.4273 C   0  0  0  0  0  0  0  0  0  0  0  0
   -5.7642  -35.2580  -14.2033 C   0  0  1  0  0  0  0  0  0  0  0  0
   -6.7348  -36.4117  -14.0797 C   0  0  2  0  0  0  0  0  0  0  0  0
   -6.7835  -37.0244  -15.4691 C   0  0  1  0  0  0  0  0  0  0  0  0
   -5.4433  -36.5024  -16.0035 C   0  0  1  0  0  0  0  0  0  0  0  0
   -5.4211  -36.5486  -17.5162 C   0  0  0  0  0  0  0  0  0  0  0  0
   -3.3572  -35.4121  -14.1925 O   0  0  0  0  0  0  0  0  0  0  0  0
   -5.4577  -35.1982  -15.5335 O   0  0  0  0  0  0  0  0  0  0  0  0
   -8.0250  -35.9677  -13.7990 O   0  0  0  0  0  0  0  0  0  0  0  0
   -6.7755  -38.3950  -15.3397 O   0  0  0  0  0  0  0  0  0  0  0  0
   -5.6577  -35.2477  -17.9654 O   0  0  0  0  0  0  0  0  0  0  0  0
  1  2  1  0
  1  7  1  1
  1 11  1  0
  2  3  1  0
  2  8  1  1
  3  4  1  0
  3  9  1  6
  5  4  1  0
  4 10  1  6
  5  6  1  6
 11  5  1  0
  6 12  1  0
 14  7  1  0
 14 13  1  1
 13 19  1  0
 14 15  1  0
 20 14  1  0
 16 15  1  0
 15 21  1  6
 17 16  1  0
 16 22  1  1
 17 18  1  6
 17 20  1  0
 23 18  1  0
M  END
$$$$
