
     RDKit          3D

 23 24  0  0  0  0  0  0  0  0999 V2000
   -6.6947  -32.8919  -16.4208 C   0  0  1  0  0  0  0  0  0  0  0  0
   -6.3505  -33.2713  -17.8427 C   0  0  1  0  0  0  0  0  0  0  0  0
   -6.3591  -34.7471  -18.0606 C   0  0  2  0  0  0  0  0  0  0  0  0
   -6.1220  -35.4793  -16.7602 C   0  0  1  0  0  0  0  0  0  0  0  0
   -7.0789  -35.0551  -15.6842 C   0  0  1  0  0  0  0  0  0  0  0  0
   -6.4544  -35.3190  -14.3184 C   0  0  0  0  0  0  0  0  0  0  0  0
   -7.2949  -31.6467  -16.4642 O   0  0  0  0  0  0  0  0  0  0  0  0
   -7.3175  -32.6856  -18.6732 O   0  0  0  0  0  0  0  0  0  0  0  0
   -5.3841  -35.0676  -18.9780 O   0  0  0  0  0  0  0  0  0  0  0  0
   -6.1082  -36.8571  -16.9391 O   0  0  0  0  0  0  0  0  0  0  0  0
   -7.5573  -33.7881  -15.8200 O   0  0  0  0  0  0  0  0  0  0  0  0
   -7.0083  -36.4739  -13.7457 O   0  0  0  0  0  0  0  0  0  0  0  0
   -8.6594  -30.0613  -15.2825 C   0  0  0  0  0  0  0  0  0  0  0  0
   -7.5260  -31.0721  -15.2213 C   0  0  1  0  0  0  0  0  0  0  0  0
   -7.8884  -32.1983  -14.2825 C   0  0  2  0  0  0  0  0  0  0  0  0
   -6.9177  -31.9756  -13.1315 C   0  0  1  0  0  0  0  0  0  0  0  0
   -6.5911  -30.5117  -13.3379 C   0  0  1  0  0  0  0  0  0  0  0  0
   -5.3371  -30.1113  -12.5860 C   0  0  0  0  0  0  0  0  0  0  0  0
   -8.4082  -29.2099  -16.3787 O   0  0  0  0  0  0  0  0  0  0  0  0
   -6.4099  -30.4434  -14.7100 O   0  0  0  0  0  0  0  0  0  0  0  0
   -7.6404  -33.4215  -14.8640 O   0  0  0  0  0  0  0  0  0  0  0  0
   -7.5346  -32.2428  -11.9366 O   0  0  0  0  0  0  0  0  0  0  0  0
   -4.4208  -29.6520  -13.5462 O   0  0  0  0  0  0  0  0  0  0  0  0
  1  2  1  0
  1  7  1  6
  1 11  1  0
  2  3  1  0
  2  8  1  6
  3  4  1  0
  3  9  1  6
  5  4  1  0
  4 10  1  6
  5  6  1  0
  5 11  1  6
  6 12  1  6
 14  7  1  6
 14 13  1  0
 13 19  1  6
 14 15  1  0
 20 14  1  0
 16 15  1  0
 15 21  1  6
 17 16  1  0
 16 22  1  1
 18 17  1  0
 17 20  1  6
 18 23  1  6
M  END
$$$$
