
     RDKit          3D

 23 24  0  0  0  0  0  0  0  0999 V2000
   -6.3209  -34.6335  -15.9037 C   0  0  1  0  0  0  0  0  0  0  0  0
   -5.7951  -35.5528  -16.9818 C   0  0  1  0  0  0  0  0  0  0  0  0
   -4.8861  -36.6065  -16.4440 C   0  0  2  0  0  0  0  0  0  0  0  0
   -4.2660  -36.1608  -15.1401 C   0  0  1  0  0  0  0  0  0  0  0  0
   -5.2959  -35.7285  -14.1373 C   0  0  1  0  0  0  0  0  0  0  0  0
   -4.6619  -34.7580  -13.1467 C   0  0  0  0  0  0  0  0  0  0  0  0
   -7.5618  -34.1854  -16.3183 O   0  0  0  0  0  0  0  0  0  0  0  0
   -6.9050  -36.1724  -17.5752 O   0  0  0  0  0  0  0  0  0  0  0  0
   -3.9085  -36.8698  -17.3767 O   0  0  0  0  0  0  0  0  0  0  0  0
   -3.4007  -37.1188  -14.6264 O   0  0  0  0  0  0  0  0  0  0  0  0
   -6.4533  -35.2614  -14.6804 O   0  0  0  0  0  0  0  0  0  0  0  0
   -3.3689  -34.4107  -13.5663 O   0  0  0  0  0  0  0  0  0  0  0  0
   -8.9605  -32.3111  -16.8679 C   0  0  0  0  0  0  0  0  0  0  0  0
   -7.8294  -32.8575  -16.0125 C   0  0  1  0  0  0  0  0  0  0  0  0
   -8.2192  -32.8177  -14.5539 C   0  0  2  0  0  0  0  0  0  0  0  0
   -7.2828  -31.7505  -14.0051 C   0  0  1  0  0  0  0  0  0  0  0  0
   -6.9503  -31.0062  -15.2810 C   0  0  1  0  0  0  0  0  0  0  0  0
   -5.7192  -30.1380  -15.1124 C   0  0  0  0  0  0  0  0  0  0  0  0
   -8.4806  -32.2116  -18.1906 O   0  0  0  0  0  0  0  0  0  0  0  0
   -6.7288  -32.0420  -16.1743 O   0  0  0  0  0  0  0  0  0  0  0  0
   -7.9540  -34.0221  -13.9415 O   0  0  0  0  0  0  0  0  0  0  0  0
   -7.9346  -30.9867  -13.0716 O   0  0  0  0  0  0  0  0  0  0  0  0
   -4.6083  -30.9622  -15.3560 O   0  0  0  0  0  0  0  0  0  0  0  0
  1  2  1  0
  1  7  1  6
  1 11  1  0
  2  3  1  0
  2  8  1  1
  3  4  1  0
  3  9  1  6
  5  4  1  0
  4 10  1  1
  5  6  1  0
  5 11  1  6
  6 12  1  6
 14  7  1  6
 14 13  1  0
 13 19  1  6
 14 15  1  0
 20 14  1  0
 16 15  1  0
 15 21  1  1
 17 16  1  0
 16 22  1  1
 18 17  1  0
 17 20  1  6
 18 23  1  6
M  END
$$$$
