
     RDKit          3D

 23 24  0  0  0  0  0  0  0  0999 V2000
   -7.1212  -33.2134  -14.6242 C   0  0  1  0  0  0  0  0  0  0  0  0
   -7.3865  -32.3219  -13.4331 C   0  0  1  0  0  0  0  0  0  0  0  0
   -7.7231  -30.9230  -13.8274 C   0  0  2  0  0  0  0  0  0  0  0  0
   -7.1573  -30.6029  -15.1915 C   0  0  1  0  0  0  0  0  0  0  0  0
   -7.5713  -31.6045  -16.2300 C   0  0  1  0  0  0  0  0  0  0  0  0
   -6.5476  -31.6149  -17.3601 C   0  0  0  0  0  0  0  0  0  0  0  0
   -7.4762  -34.4993  -14.2593 O   0  0  0  0  0  0  0  0  0  0  0  0
   -8.4751  -32.8709  -12.7393 O   0  0  0  0  0  0  0  0  0  0  0  0
   -7.2173  -30.0598  -12.8819 O   0  0  0  0  0  0  0  0  0  0  0  0
   -7.4426  -29.2984  -15.5751 O   0  0  0  0  0  0  0  0  0  0  0  0
   -7.8447  -32.8454  -15.7419 O   0  0  0  0  0  0  0  0  0  0  0  0
   -5.2468  -31.6687  -16.8370 O   0  0  0  0  0  0  0  0  0  0  0  0
   -7.5632  -36.8562  -14.7160 C   0  0  0  0  0  0  0  0  0  0  0  0
   -7.0554  -35.4877  -15.1392 C   0  0  1  0  0  0  0  0  0  0  0  0
   -7.6121  -35.1271  -16.4961 C   0  0  2  0  0  0  0  0  0  0  0  0
   -6.3668  -35.1686  -17.3703 C   0  0  1  0  0  0  0  0  0  0  0  0
   -5.4780  -36.0571  -16.5259 C   0  0  1  0  0  0  0  0  0  0  0  0
   -4.0255  -35.9496  -16.9462 C   0  0  0  0  0  0  0  0  0  0  0  0
   -6.6518  -37.3719  -13.7709 O   0  0  0  0  0  0  0  0  0  0  0  0
   -5.6822  -35.5494  -15.2528 O   0  0  0  0  0  0  0  0  0  0  0  0
   -8.1293  -33.8510  -16.4915 O   0  0  0  0  0  0  0  0  0  0  0  0
   -6.6709  -35.6958  -18.5988 O   0  0  0  0  0  0  0  0  0  0  0  0
   -3.4959  -34.8302  -16.2835 O   0  0  0  0  0  0  0  0  0  0  0  0
  1  2  1  0
  1  7  1  1
  1 11  1  0
  2  3  1  0
  2  8  1  6
  3  4  1  0
  3  9  1  1
  5  4  1  0
  4 10  1  6
  5  6  1  0
  5 11  1  1
  6 12  1  6
 14  7  1  1
 14 13  1  0
 13 19  1  6
 14 15  1  0
 20 14  1  0
 16 15  1  0
 15 21  1  1
 17 16  1  0
 16 22  1  6
 18 17  1  0
 17 20  1  1
 18 23  1  6
M  END
$$$$
