
     RDKit          3D

 23 24  0  0  0  0  0  0  0  0999 V2000
   -5.9608  -33.9089  -15.3767 C   0  0  1  0  0  0  0  0  0  0  0  0
   -5.4211  -35.1449  -14.7346 C   0  0  1  0  0  0  0  0  0  0  0  0
   -5.3793  -36.3082  -15.7088 C   0  0  2  0  0  0  0  0  0  0  0  0
   -6.5820  -36.2412  -16.6167 C   0  0  1  0  0  0  0  0  0  0  0  0
   -6.6966  -34.9281  -17.3300 C   0  0  1  0  0  0  0  0  0  0  0  0
   -8.1530  -34.5200  -17.5621 C   0  0  0  0  0  0  0  0  0  0  0  0
   -5.2272  -32.8386  -14.9357 O   0  0  0  0  0  0  0  0  0  0  0  0
   -4.0887  -34.9144  -14.3636 O   0  0  0  0  0  0  0  0  0  0  0  0
   -5.3180  -37.4846  -14.9955 O   0  0  0  0  0  0  0  0  0  0  0  0
   -6.4895  -37.2996  -17.5199 O   0  0  0  0  0  0  0  0  0  0  0  0
   -5.9646  -33.9161  -16.7501 O   0  0  0  0  0  0  0  0  0  0  0  0
   -8.3441  -34.2827  -18.9235 O   0  0  0  0  0  0  0  0  0  0  0  0
   -5.0969  -30.4544  -14.6339 C   0  0  0  0  0  0  0  0  0  0  0  0
   -5.9632  -31.6863  -14.7151 C   0  0  1  0  0  0  0  0  0  0  0  0
   -6.9243  -31.5602  -15.8764 C   0  0  2  0  0  0  0  0  0  0  0  0
   -8.2916  -31.4143  -15.2305 C   0  0  1  0  0  0  0  0  0  0  0  0
   -7.8472  -30.9167  -13.8488 C   0  0  1  0  0  0  0  0  0  0  0  0
   -8.9454  -31.1304  -12.8294 C   0  0  0  0  0  0  0  0  0  0  0  0
   -4.2310  -30.4811  -13.5472 O   0  0  0  0  0  0  0  0  0  0  0  0
   -6.7586  -31.7402  -13.6055 O   0  0  0  0  0  0  0  0  0  0  0  0
   -6.9686  -32.7285  -16.6338 O   0  0  0  0  0  0  0  0  0  0  0  0
   -8.9934  -30.4464  -15.9133 O   0  0  0  0  0  0  0  0  0  0  0  0
   -8.6165  -32.2840  -12.1145 O   0  0  0  0  0  0  0  0  0  0  0  0
  1  2  1  0
  1  7  1  6
  1 11  1  0
  2  3  1  0
  2  8  1  6
  3  4  1  0
  3  9  1  1
  5  4  1  0
  4 10  1  6
  5  6  1  1
 11  5  1  0
  6 12  1  0
 14  7  1  0
 14 13  1  1
 13 19  1  0
 14 15  1  0
 20 14  1  0
 16 15  1  0
 15 21  1  6
 17 16  1  0
 16 22  1  6
 17 18  1  1
 17 20  1  0
 23 18  1  0
M  END
$$$$
