
     RDKit          3D

 23 24  0  0  0  0  0  0  0  0999 V2000
   -6.9261  -32.9249  -15.7024 C   0  0  1  0  0  0  0  0  0  0  0  0
   -7.4268  -31.7669  -16.5019 C   0  0  1  0  0  0  0  0  0  0  0  0
   -8.4039  -32.2100  -17.5759 C   0  0  2  0  0  0  0  0  0  0  0  0
   -7.9614  -33.5396  -18.1341 C   0  0  1  0  0  0  0  0  0  0  0  0
   -7.7947  -34.5859  -17.0742 C   0  0  1  0  0  0  0  0  0  0  0  0
   -6.6700  -35.5699  -17.4034 C   0  0  0  0  0  0  0  0  0  0  0  0
   -6.8612  -32.5448  -14.3872 O   0  0  0  0  0  0  0  0  0  0  0  0
   -8.1540  -30.9169  -15.6566 O   0  0  0  0  0  0  0  0  0  0  0  0
   -8.4814  -31.2293  -18.5395 O   0  0  0  0  0  0  0  0  0  0  0  0
   -8.9009  -33.9318  -19.0870 O   0  0  0  0  0  0  0  0  0  0  0  0
   -7.6737  -34.0727  -15.8021 O   0  0  0  0  0  0  0  0  0  0  0  0
   -6.9726  -36.8080  -16.8360 O   0  0  0  0  0  0  0  0  0  0  0  0
   -5.6045  -32.5738  -12.3348 C   0  0  0  0  0  0  0  0  0  0  0  0
   -5.9706  -33.2756  -13.6187 C   0  0  1  0  0  0  0  0  0  0  0  0
   -6.6494  -34.5910  -13.3069 C   0  0  2  0  0  0  0  0  0  0  0  0
   -5.6567  -35.6515  -13.7521 C   0  0  1  0  0  0  0  0  0  0  0  0
   -4.3767  -34.8062  -13.7145 C   0  0  1  0  0  0  0  0  0  0  0  0
   -3.2932  -35.4465  -14.5552 C   0  0  0  0  0  0  0  0  0  0  0  0
   -6.0094  -31.2444  -12.3186 O   0  0  0  0  0  0  0  0  0  0  0  0
   -4.8233  -33.6198  -14.2760 O   0  0  0  0  0  0  0  0  0  0  0  0
   -7.7937  -34.7728  -14.0801 O   0  0  0  0  0  0  0  0  0  0  0  0
   -5.6309  -36.6481  -12.8026 O   0  0  0  0  0  0  0  0  0  0  0  0
   -3.0183  -34.5651  -15.6028 O   0  0  0  0  0  0  0  0  0  0  0  0
  1  2  1  0
  1  7  1  1
  1 11  1  0
  2  3  1  0
  2  8  1  1
  3  4  1  0
  3  9  1  6
  5  4  1  0
  4 10  1  6
  5  6  1  6
 11  5  1  0
  6 12  1  0
 14  7  1  0
 14 13  1  1
 13 19  1  0
 14 15  1  0
 20 14  1  0
 16 15  1  0
 15 21  1  6
 17 16  1  0
 16 22  1  1
 17 18  1  6
 17 20  1  0
 23 18  1  0
M  END
$$$$
