
     RDKit          3D

 23 24  0  0  0  0  0  0  0  0999 V2000
   -7.2579  -33.7230  -15.7543 C   0  0  1  0  0  0  0  0  0  0  0  0
   -7.8713  -33.9845  -17.1106 C   0  0  1  0  0  0  0  0  0  0  0  0
   -7.5455  -35.3426  -17.6352 C   0  0  2  0  0  0  0  0  0  0  0  0
   -6.2700  -35.8623  -17.0136 C   0  0  1  0  0  0  0  0  0  0  0  0
   -6.3097  -35.8237  -15.5136 C   0  0  1  0  0  0  0  0  0  0  0  0
   -4.8863  -35.7555  -14.9710 C   0  0  0  0  0  0  0  0  0  0  0  0
   -8.0875  -32.8343  -15.0952 O   0  0  0  0  0  0  0  0  0  0  0  0
   -9.2623  -33.8780  -16.9634 O   0  0  0  0  0  0  0  0  0  0  0  0
   -7.4200  -35.2729  -19.0043 O   0  0  0  0  0  0  0  0  0  0  0  0
   -5.9348  -37.1202  -17.4991 O   0  0  0  0  0  0  0  0  0  0  0  0
   -7.1287  -34.8689  -14.9937 O   0  0  0  0  0  0  0  0  0  0  0  0
   -4.8896  -35.9122  -13.5767 O   0  0  0  0  0  0  0  0  0  0  0  0
   -8.3957  -31.3422  -13.2378 C   0  0  0  0  0  0  0  0  0  0  0  0
   -7.4332  -31.9568  -14.2406 C   0  0  1  0  0  0  0  0  0  0  0  0
   -6.3776  -32.7598  -13.5183 C   0  0  2  0  0  0  0  0  0  0  0  0
   -5.1250  -31.9315  -13.7665 C   0  0  1  0  0  0  0  0  0  0  0  0
   -5.7507  -30.5871  -14.0720 C   0  0  1  0  0  0  0  0  0  0  0  0
   -4.7661  -29.6589  -14.7553 C   0  0  0  0  0  0  0  0  0  0  0  0
   -9.4025  -30.6784  -13.9696 O   0  0  0  0  0  0  0  0  0  0  0  0
   -6.7953  -30.9354  -14.9132 O   0  0  0  0  0  0  0  0  0  0  0  0
   -6.2286  -34.0030  -14.0911 O   0  0  0  0  0  0  0  0  0  0  0  0
   -4.3308  -31.9321  -12.6489 O   0  0  0  0  0  0  0  0  0  0  0  0
   -5.2704  -29.4134  -16.0429 O   0  0  0  0  0  0  0  0  0  0  0  0
  1  2  1  0
  1  7  1  1
  1 11  1  0
  2  3  1  0
  2  8  1  1
  3  4  1  0
  3  9  1  6
  5  4  1  0
  4 10  1  1
  5  6  1  0
  5 11  1  6
  6 12  1  6
 14  7  1  6
 14 13  1  0
 13 19  1  6
 14 15  1  0
 20 14  1  0
 16 15  1  0
 15 21  1  6
 17 16  1  0
 16 22  1  1
 18 17  1  0
 17 20  1  6
 18 23  1  6
M  END
$$$$
