
     RDKit          3D

 23 24  0  0  0  0  0  0  0  0999 V2000
   -6.8805  -33.0809  -15.3060 C   0  0  1  0  0  0  0  0  0  0  0  0
   -7.0449  -31.6487  -14.8525 C   0  0  1  0  0  0  0  0  0  0  0  0
   -8.0720  -30.9108  -15.6440 C   0  0  2  0  0  0  0  0  0  0  0  0
   -8.2477  -31.5395  -17.0068 C   0  0  1  0  0  0  0  0  0  0  0  0
   -8.5385  -33.0098  -16.9233 C   0  0  1  0  0  0  0  0  0  0  0  0
   -8.1083  -33.6855  -18.2207 C   0  0  0  0  0  0  0  0  0  0  0  0
   -6.4823  -33.8152  -14.2038 O   0  0  0  0  0  0  0  0  0  0  0  0
   -7.4476  -31.6833  -13.5092 O   0  0  0  0  0  0  0  0  0  0  0  0
   -7.6801  -29.5969  -15.7671 O   0  0  0  0  0  0  0  0  0  0  0  0
   -9.1879  -30.8596  -17.7711 O   0  0  0  0  0  0  0  0  0  0  0  0
   -8.0472  -33.6214  -15.8109 O   0  0  0  0  0  0  0  0  0  0  0  0
   -8.3113  -35.0713  -18.1375 O   0  0  0  0  0  0  0  0  0  0  0  0
   -6.0190  -35.9741  -13.2570 C   0  0  0  0  0  0  0  0  0  0  0  0
   -6.0215  -35.0924  -14.4950 C   0  0  1  0  0  0  0  0  0  0  0  0
   -6.9553  -35.6647  -15.5349 C   0  0  2  0  0  0  0  0  0  0  0  0
   -5.9854  -36.1122  -16.6192 C   0  0  1  0  0  0  0  0  0  0  0  0
   -4.7151  -36.2381  -15.8050 C   0  0  1  0  0  0  0  0  0  0  0  0
   -3.4877  -36.2775  -16.6938 C   0  0  0  0  0  0  0  0  0  0  0  0
   -5.7190  -35.1506  -12.1517 O   0  0  0  0  0  0  0  0  0  0  0  0
   -4.7500  -35.0902  -15.0297 O   0  0  0  0  0  0  0  0  0  0  0  0
   -7.7888  -34.6900  -16.0362 O   0  0  0  0  0  0  0  0  0  0  0  0
   -6.4089  -37.2931  -17.1720 O   0  0  0  0  0  0  0  0  0  0  0  0
   -2.8106  -35.0623  -16.5001 O   0  0  0  0  0  0  0  0  0  0  0  0
  1  2  1  0
  1  7  1  1
  1 11  1  0
  2  3  1  0
  2  8  1  1
  3  4  1  0
  3  9  1  6
  5  4  1  0
  4 10  1  1
  5  6  1  0
  5 11  1  1
  6 12  1  6
 14  7  1  1
 14 13  1  0
 13 19  1  6
 14 15  1  0
 20 14  1  0
 16 15  1  0
 15 21  1  6
 17 16  1  0
 16 22  1  1
 18 17  1  0
 17 20  1  1
 18 23  1  6
M  END
$$$$
