
     RDKit          3D

 23 24  0  0  0  0  0  0  0  0999 V2000
   -7.1412  -33.0497  -14.5907 C   0  0  1  0  0  0  0  0  0  0  0  0
   -7.4352  -32.0675  -13.5045 C   0  0  1  0  0  0  0  0  0  0  0  0
   -7.5312  -30.6513  -14.0425 C   0  0  2  0  0  0  0  0  0  0  0  0
   -6.5183  -30.4675  -15.1450 C   0  0  1  0  0  0  0  0  0  0  0  0
   -6.6609  -31.4836  -16.2375 C   0  0  1  0  0  0  0  0  0  0  0  0
   -5.3152  -31.8500  -16.8670 C   0  0  0  0  0  0  0  0  0  0  0  0
   -7.8887  -34.1764  -14.3670 O   0  0  0  0  0  0  0  0  0  0  0  0
   -8.6983  -32.3545  -12.9678 O   0  0  0  0  0  0  0  0  0  0  0  0
   -7.3500  -29.7667  -13.0028 O   0  0  0  0  0  0  0  0  0  0  0  0
   -6.6620  -29.1716  -15.6394 O   0  0  0  0  0  0  0  0  0  0  0  0
   -7.3768  -32.5999  -15.8668 O   0  0  0  0  0  0  0  0  0  0  0  0
   -5.5462  -32.5696  -18.0398 O   0  0  0  0  0  0  0  0  0  0  0  0
   -7.4888  -36.5361  -14.1137 C   0  0  0  0  0  0  0  0  0  0  0  0
   -7.4176  -35.3160  -14.9974 C   0  0  1  0  0  0  0  0  0  0  0  0
   -8.2827  -35.5198  -16.2215 C   0  0  2  0  0  0  0  0  0  0  0  0
   -7.2989  -35.6313  -17.3739 C   0  0  1  0  0  0  0  0  0  0  0  0
   -6.0510  -36.0385  -16.5793 C   0  0  1  0  0  0  0  0  0  0  0  0
   -4.7980  -35.7662  -17.3834 C   0  0  0  0  0  0  0  0  0  0  0  0
   -6.4964  -37.4647  -14.4044 O   0  0  0  0  0  0  0  0  0  0  0  0
   -6.1459  -35.1961  -15.4823 O   0  0  0  0  0  0  0  0  0  0  0  0
   -9.0715  -34.4019  -16.4832 O   0  0  0  0  0  0  0  0  0  0  0  0
   -7.7189  -36.6437  -18.2070 O   0  0  0  0  0  0  0  0  0  0  0  0
   -3.9424  -35.0273  -16.5636 O   0  0  0  0  0  0  0  0  0  0  0  0
  1  2  1  0
  1  7  1  1
  1 11  1  0
  2  3  1  0
  2  8  1  6
  3  4  1  0
  3  9  1  1
  5  4  1  0
  4 10  1  6
  5  6  1  1
 11  5  1  0
  6 12  1  0
 14  7  1  0
 14 13  1  1
 13 19  1  0
 14 15  1  0
 20 14  1  0
 16 15  1  0
 15 21  1  6
 17 16  1  0
 16 22  1  6
 17 18  1  6
 17 20  1  0
 23 18  1  0
M  END
$$$$
