
     RDKit          3D

 23 24  0  0  0  0  0  0  0  0999 V2000
   -7.0099  -33.3038  -14.9695 C   0  0  1  0  0  0  0  0  0  0  0  0
   -7.2627  -32.8647  -13.5643 C   0  0  1  0  0  0  0  0  0  0  0  0
   -7.6115  -31.3890  -13.4941 C   0  0  2  0  0  0  0  0  0  0  0  0
   -6.8007  -30.6361  -14.5193 C   0  0  1  0  0  0  0  0  0  0  0  0
   -6.9731  -31.1784  -15.9057 C   0  0  1  0  0  0  0  0  0  0  0  0
   -5.6982  -31.0470  -16.7419 C   0  0  0  0  0  0  0  0  0  0  0  0
   -7.5709  -34.5423  -15.1415 O   0  0  0  0  0  0  0  0  0  0  0  0
   -8.3887  -33.5429  -13.0763 O   0  0  0  0  0  0  0  0  0  0  0  0
   -7.3925  -30.9401  -12.2108 O   0  0  0  0  0  0  0  0  0  0  0  0
   -7.1749  -29.2945  -14.4521 O   0  0  0  0  0  0  0  0  0  0  0  0
   -7.4829  -32.4571  -15.9419 O   0  0  0  0  0  0  0  0  0  0  0  0
   -5.5624  -29.7207  -17.1529 O   0  0  0  0  0  0  0  0  0  0  0  0
   -7.4223  -34.7663  -17.5332 C   0  0  0  0  0  0  0  0  0  0  0  0
   -7.0236  -35.2852  -16.1743 C   0  0  1  0  0  0  0  0  0  0  0  0
   -5.5216  -35.2022  -16.0156 C   0  0  2  0  0  0  0  0  0  0  0  0
   -5.0552  -36.6481  -16.0037 C   0  0  1  0  0  0  0  0  0  0  0  0
   -6.2558  -37.2883  -16.7129 C   0  0  1  0  0  0  0  0  0  0  0  0
   -6.3067  -38.7748  -16.4326 C   0  0  0  0  0  0  0  0  0  0  0  0
   -8.7760  -34.9405  -17.7954 O   0  0  0  0  0  0  0  0  0  0  0  0
   -7.3102  -36.6195  -16.1102 O   0  0  0  0  0  0  0  0  0  0  0  0
   -5.1659  -34.6630  -14.7814 O   0  0  0  0  0  0  0  0  0  0  0  0
   -3.9115  -36.7417  -16.7643 O   0  0  0  0  0  0  0  0  0  0  0  0
   -6.9697  -38.9355  -15.2142 O   0  0  0  0  0  0  0  0  0  0  0  0
  1  2  1  0
  1  7  1  6
  1 11  1  0
  2  3  1  0
  2  8  1  6
  3  4  1  0
  3  9  1  1
  5  4  1  0
  4 10  1  6
  5  6  1  1
 11  5  1  0
  6 12  1  0
 14  7  1  0
 14 13  1  6
 13 19  1  0
 14 15  1  0
 20 14  1  0
 16 15  1  0
 15 21  1  1
 17 16  1  0
 16 22  1  6
 17 18  1  1
 17 20  1  0
 23 18  1  0
M  END
$$$$
