
     RDKit          3D

 23 24  0  0  0  0  0  0  0  0999 V2000
   -6.4814  -32.7863  -15.2284 C   0  0  1  0  0  0  0  0  0  0  0  0
   -6.0424  -32.0209  -14.0014 C   0  0  1  0  0  0  0  0  0  0  0  0
   -7.0612  -31.0292  -13.5491 C   0  0  2  0  0  0  0  0  0  0  0  0
   -7.9551  -30.6219  -14.6972 C   0  0  1  0  0  0  0  0  0  0  0  0
   -8.5743  -31.8039  -15.3849 C   0  0  1  0  0  0  0  0  0  0  0  0
   -8.9289  -31.4268  -16.8192 C   0  0  0  0  0  0  0  0  0  0  0  0
   -5.8766  -34.0287  -15.1729 O   0  0  0  0  0  0  0  0  0  0  0  0
   -5.8392  -32.9594  -12.9787 O   0  0  0  0  0  0  0  0  0  0  0  0
   -6.4137  -29.9308  -13.0301 O   0  0  0  0  0  0  0  0  0  0  0  0
   -8.9030  -29.6847  -14.3056 O   0  0  0  0  0  0  0  0  0  0  0  0
   -7.8510  -32.9535  -15.2952 O   0  0  0  0  0  0  0  0  0  0  0  0
   -7.8314  -30.8190  -17.4474 O   0  0  0  0  0  0  0  0  0  0  0  0
   -8.0290  -35.0958  -15.1699 C   0  0  0  0  0  0  0  0  0  0  0  0
   -6.6187  -35.0592  -15.7350 C   0  0  1  0  0  0  0  0  0  0  0  0
   -6.6646  -34.8004  -17.2222 C   0  0  2  0  0  0  0  0  0  0  0  0
   -6.1871  -36.1296  -17.7896 C   0  0  1  0  0  0  0  0  0  0  0  0
   -6.4906  -37.0427  -16.6207 C   0  0  1  0  0  0  0  0  0  0  0  0
   -5.7504  -38.3603  -16.7388 C   0  0  0  0  0  0  0  0  0  0  0  0
   -8.4090  -36.4504  -15.0680 O   0  0  0  0  0  0  0  0  0  0  0  0
   -6.0411  -36.2969  -15.5429 O   0  0  0  0  0  0  0  0  0  0  0  0
   -5.7811  -33.8050  -17.5751 O   0  0  0  0  0  0  0  0  0  0  0  0
   -6.8877  -36.4347  -18.9279 O   0  0  0  0  0  0  0  0  0  0  0  0
   -5.3786  -38.7319  -15.4364 O   0  0  0  0  0  0  0  0  0  0  0  0
  1  2  1  0
  1  7  1  1
  1 11  1  0
  2  3  1  0
  2  8  1  1
  3  4  1  0
  3  9  1  6
  5  4  1  0
  4 10  1  1
  5  6  1  0
  5 11  1  6
  6 12  1  6
 14  7  1  1
 14 13  1  0
 13 19  1  6
 14 15  1  0
 20 14  1  0
 16 15  1  0
 15 21  1  1
 17 16  1  0
 16 22  1  6
 18 17  1  0
 17 20  1  1
 18 23  1  6
M  END
$$$$
