
     RDKit          3D

 23 24  0  0  0  0  0  0  0  0999 V2000
   -6.0485  -33.0527  -16.4533 C   0  0  1  0  0  0  0  0  0  0  0  0
   -4.8415  -33.5342  -17.2248 C   0  0  1  0  0  0  0  0  0  0  0  0
   -5.1024  -34.8034  -17.9643 C   0  0  2  0  0  0  0  0  0  0  0  0
   -6.2317  -35.5733  -17.3199 C   0  0  1  0  0  0  0  0  0  0  0  0
   -7.4704  -34.7409  -17.1589 C   0  0  1  0  0  0  0  0  0  0  0  0
   -8.3121  -35.3011  -16.0175 C   0  0  0  0  0  0  0  0  0  0  0  0
   -5.9654  -31.6740  -16.3834 O   0  0  0  0  0  0  0  0  0  0  0  0
   -4.5137  -32.5311  -18.1491 O   0  0  0  0  0  0  0  0  0  0  0  0
   -3.9507  -35.5573  -17.9753 O   0  0  0  0  0  0  0  0  0  0  0  0
   -6.4834  -36.7693  -17.9805 O   0  0  0  0  0  0  0  0  0  0  0  0
   -7.2431  -33.4031  -17.0519 O   0  0  0  0  0  0  0  0  0  0  0  0
   -7.5004  -35.5848  -14.9089 O   0  0  0  0  0  0  0  0  0  0  0  0
   -7.1182  -29.6449  -15.8132 C   0  0  0  0  0  0  0  0  0  0  0  0
   -6.8138  -31.0895  -15.4523 C   0  0  1  0  0  0  0  0  0  0  0  0
   -8.0870  -31.9019  -15.4544 C   0  0  2  0  0  0  0  0  0  0  0  0
   -8.2596  -32.2235  -13.9768 C   0  0  1  0  0  0  0  0  0  0  0  0
   -7.4258  -31.1181  -13.3643 C   0  0  1  0  0  0  0  0  0  0  0  0
   -7.0792  -31.4196  -11.9197 C   0  0  0  0  0  0  0  0  0  0  0  0
   -5.8932  -29.0202  -16.1277 O   0  0  0  0  0  0  0  0  0  0  0  0
   -6.3003  -31.1190  -14.1725 O   0  0  0  0  0  0  0  0  0  0  0  0
   -7.9229  -33.0704  -16.1641 O   0  0  0  0  0  0  0  0  0  0  0  0
   -9.5863  -32.1714  -13.6351 O   0  0  0  0  0  0  0  0  0  0  0  0
   -5.9077  -32.1941  -11.9394 O   0  0  0  0  0  0  0  0  0  0  0  0
  1  2  1  0
  1  7  1  6
  1 11  1  0
  2  3  1  0
  2  8  1  6
  3  4  1  0
  3  9  1  1
  5  4  1  0
  4 10  1  6
  5  6  1  0
  5 11  1  1
  6 12  1  6
 14  7  1  6
 14 13  1  0
 13 19  1  6
 14 15  1  0
 20 14  1  0
 16 15  1  0
 15 21  1  6
 17 16  1  0
 16 22  1  1
 18 17  1  0
 17 20  1  6
 18 23  1  6
M  END
$$$$
