
     RDKit          3D

 23 24  0  0  0  0  0  0  0  0999 V2000
   -6.5642  -33.1245  -16.5651 C   0  0  1  0  0  0  0  0  0  0  0  0
   -7.0297  -33.6234  -17.9136 C   0  0  1  0  0  0  0  0  0  0  0  0
   -7.2160  -35.1033  -17.9446 C   0  0  2  0  0  0  0  0  0  0  0  0
   -6.3678  -35.7696  -16.8863 C   0  0  1  0  0  0  0  0  0  0  0  0
   -6.6028  -35.1927  -15.5206 C   0  0  1  0  0  0  0  0  0  0  0  0
   -5.3697  -35.4244  -14.6540 C   0  0  0  0  0  0  0  0  0  0  0  0
   -7.0431  -31.8354  -16.4189 O   0  0  0  0  0  0  0  0  0  0  0  0
   -8.2610  -33.0066  -18.1809 O   0  0  0  0  0  0  0  0  0  0  0  0
   -6.8783  -35.5686  -19.1954 O   0  0  0  0  0  0  0  0  0  0  0  0
   -6.5103  -37.1515  -16.9056 O   0  0  0  0  0  0  0  0  0  0  0  0
   -7.0252  -33.8987  -15.5181 O   0  0  0  0  0  0  0  0  0  0  0  0
   -5.6882  -36.2525  -13.5671 O   0  0  0  0  0  0  0  0  0  0  0  0
   -7.4966  -29.9110  -15.0541 C   0  0  0  0  0  0  0  0  0  0  0  0
   -7.0030  -31.3469  -15.1196 C   0  0  1  0  0  0  0  0  0  0  0  0
   -7.8977  -32.2390  -14.2923 C   0  0  2  0  0  0  0  0  0  0  0  0
   -6.9780  -32.6336  -13.1454 C   0  0  1  0  0  0  0  0  0  0  0  0
   -5.9724  -31.5036  -13.2095 C   0  0  1  0  0  0  0  0  0  0  0  0
   -4.7066  -31.8432  -12.4477 C   0  0  0  0  0  0  0  0  0  0  0  0
   -8.4633  -29.7493  -16.0685 O   0  0  0  0  0  0  0  0  0  0  0  0
   -5.7384  -31.3975  -14.5711 O   0  0  0  0  0  0  0  0  0  0  0  0
   -8.2601  -33.3633  -14.9998 O   0  0  0  0  0  0  0  0  0  0  0  0
   -7.6836  -32.6819  -11.9710 O   0  0  0  0  0  0  0  0  0  0  0  0
   -3.6515  -31.7855  -13.3730 O   0  0  0  0  0  0  0  0  0  0  0  0
  1  2  1  0
  1  7  1  1
  1 11  1  0
  2  3  1  0
  2  8  1  1
  3  4  1  0
  3  9  1  6
  5  4  1  0
  4 10  1  1
  5  6  1  0
  5 11  1  6
  6 12  1  6
 14  7  1  6
 14 13  1  0
 13 19  1  6
 14 15  1  0
 20 14  1  0
 16 15  1  0
 15 21  1  6
 17 16  1  0
 16 22  1  1
 18 17  1  0
 17 20  1  6
 18 23  1  6
M  END
$$$$
