
     RDKit          3D

 23 24  0  0  0  0  0  0  0  0999 V2000
   -7.4256  -33.4226  -15.7916 C   0  0  1  0  0  0  0  0  0  0  0  0
   -8.0823  -34.2072  -16.8798 C   0  0  1  0  0  0  0  0  0  0  0  0
   -7.8271  -35.6958  -16.7277 C   0  0  2  0  0  0  0  0  0  0  0  0
   -6.4270  -35.9108  -16.2092 C   0  0  1  0  0  0  0  0  0  0  0  0
   -6.1628  -35.1723  -14.9321 C   0  0  1  0  0  0  0  0  0  0  0  0
   -4.7099  -34.7042  -14.8235 C   0  0  0  0  0  0  0  0  0  0  0  0
   -8.2813  -32.4250  -15.4029 O   0  0  0  0  0  0  0  0  0  0  0  0
   -9.4714  -34.0490  -16.7737 O   0  0  0  0  0  0  0  0  0  0  0  0
   -8.0440  -36.3112  -17.9403 O   0  0  0  0  0  0  0  0  0  0  0  0
   -6.2427  -37.2833  -16.0457 O   0  0  0  0  0  0  0  0  0  0  0  0
   -7.0525  -34.1501  -14.6881 O   0  0  0  0  0  0  0  0  0  0  0  0
   -3.8666  -35.7884  -15.0679 O   0  0  0  0  0  0  0  0  0  0  0  0
   -8.5445  -30.1418  -14.6888 C   0  0  0  0  0  0  0  0  0  0  0  0
   -7.6764  -31.3743  -14.7335 C   0  0  1  0  0  0  0  0  0  0  0  0
   -7.4042  -31.8595  -13.3268 C   0  0  2  0  0  0  0  0  0  0  0  0
   -5.9236  -31.5973  -13.1089 C   0  0  1  0  0  0  0  0  0  0  0  0
   -5.7175  -30.5127  -14.1745 C   0  0  1  0  0  0  0  0  0  0  0  0
   -4.2506  -30.3852  -14.5248 C   0  0  0  0  0  0  0  0  0  0  0  0
   -8.8928  -29.6876  -15.9553 O   0  0  0  0  0  0  0  0  0  0  0  0
   -6.4504  -31.0325  -15.2303 O   0  0  0  0  0  0  0  0  0  0  0  0
   -7.5810  -33.2369  -13.2169 O   0  0  0  0  0  0  0  0  0  0  0  0
   -5.7541  -31.0948  -11.8384 O   0  0  0  0  0  0  0  0  0  0  0  0
   -4.0313  -31.1822  -15.6502 O   0  0  0  0  0  0  0  0  0  0  0  0
  1  2  1  0
  1  7  1  1
  1 11  1  0
  2  3  1  0
  2  8  1  1
  3  4  1  0
  3  9  1  6
  5  4  1  0
  4 10  1  1
  5  6  1  6
 11  5  1  0
  6 12  1  0
 14  7  1  0
 14 13  1  1
 13 19  1  0
 14 15  1  0
 20 14  1  0
 16 15  1  0
 15 21  1  6
 17 16  1  0
 16 22  1  1
 17 18  1  6
 17 20  1  0
 23 18  1  0
M  END
$$$$
