
     RDKit          3D

 23 24  0  0  0  0  0  0  0  0999 V2000
   -6.6556  -34.4472  -16.0819 C   0  0  1  0  0  0  0  0  0  0  0  0
   -7.0432  -35.5478  -17.0422 C   0  0  1  0  0  0  0  0  0  0  0  0
   -7.2861  -35.0433  -18.4251 C   0  0  2  0  0  0  0  0  0  0  0  0
   -7.6608  -33.5796  -18.4003 C   0  0  1  0  0  0  0  0  0  0  0  0
   -6.6580  -32.7467  -17.6561 C   0  0  1  0  0  0  0  0  0  0  0  0
   -7.3346  -31.4821  -17.1384 C   0  0  0  0  0  0  0  0  0  0  0  0
   -5.8497  -35.0159  -15.1125 O   0  0  0  0  0  0  0  0  0  0  0  0
   -5.9802  -36.4626  -17.0745 O   0  0  0  0  0  0  0  0  0  0  0  0
   -8.2908  -35.7877  -19.0007 O   0  0  0  0  0  0  0  0  0  0  0  0
   -7.9093  -33.0891  -19.6762 O   0  0  0  0  0  0  0  0  0  0  0  0
   -5.9672  -33.4181  -16.6945 O   0  0  0  0  0  0  0  0  0  0  0  0
   -7.3505  -30.4961  -18.1364 O   0  0  0  0  0  0  0  0  0  0  0  0
   -4.8835  -34.9841  -12.9132 C   0  0  0  0  0  0  0  0  0  0  0  0
   -5.8790  -34.3700  -13.8835 C   0  0  1  0  0  0  0  0  0  0  0  0
   -5.5232  -32.9254  -14.1434 C   0  0  2  0  0  0  0  0  0  0  0  0
   -6.6743  -32.1902  -13.4715 C   0  0  1  0  0  0  0  0  0  0  0  0
   -7.1458  -33.2580  -12.5073 C   0  0  1  0  0  0  0  0  0  0  0  0
   -8.5374  -32.9595  -11.9855 C   0  0  0  0  0  0  0  0  0  0  0  0
   -5.2267  -36.3436  -12.7589 O   0  0  0  0  0  0  0  0  0  0  0  0
   -7.1281  -34.3950  -13.2990 O   0  0  0  0  0  0  0  0  0  0  0  0
   -5.5283  -32.6533  -15.4931 O   0  0  0  0  0  0  0  0  0  0  0  0
   -6.2135  -31.0539  -12.8582 O   0  0  0  0  0  0  0  0  0  0  0  0
   -9.4270  -33.7427  -12.7391 O   0  0  0  0  0  0  0  0  0  0  0  0
  1  2  1  0
  1  7  1  1
  1 11  1  0
  2  3  1  0
  2  8  1  6
  3  4  1  0
  3  9  1  1
  5  4  1  0
  4 10  1  6
  5  6  1  0
  5 11  1  1
  6 12  1  6
 14  7  1  6
 14 13  1  0
 13 19  1  6
 14 15  1  0
 20 14  1  0
 16 15  1  0
 15 21  1  6
 17 16  1  0
 16 22  1  1
 18 17  1  0
 17 20  1  6
 18 23  1  6
M  END
$$$$
