
     RDKit          3D

 23 24  0  0  0  0  0  0  0  0999 V2000
   -6.5012  -33.4965  -15.0394 C   0  0  1  0  0  0  0  0  0  0  0  0
   -6.6566  -32.3626  -14.0797 C   0  0  1  0  0  0  0  0  0  0  0  0
   -7.6959  -31.3645  -14.5572 C   0  0  2  0  0  0  0  0  0  0  0  0
   -7.6163  -31.2424  -16.0586 C   0  0  1  0  0  0  0  0  0  0  0  0
   -7.7576  -32.5619  -16.7550 C   0  0  1  0  0  0  0  0  0  0  0  0
   -6.9326  -32.6289  -18.0421 C   0  0  0  0  0  0  0  0  0  0  0  0
   -6.3620  -34.6544  -14.3196 O   0  0  0  0  0  0  0  0  0  0  0  0
   -7.1448  -32.8646  -12.8649 O   0  0  0  0  0  0  0  0  0  0  0  0
   -7.4882  -30.1638  -13.9156 O   0  0  0  0  0  0  0  0  0  0  0  0
   -8.6080  -30.3495  -16.4633 O   0  0  0  0  0  0  0  0  0  0  0  0
   -7.5278  -33.6472  -15.9393 O   0  0  0  0  0  0  0  0  0  0  0  0
   -7.4033  -33.6827  -18.8259 O   0  0  0  0  0  0  0  0  0  0  0  0
   -7.8247  -36.5575  -14.4964 C   0  0  0  0  0  0  0  0  0  0  0  0
   -6.6279  -35.8120  -15.0319 C   0  0  1  0  0  0  0  0  0  0  0  0
   -6.8864  -35.3886  -16.4609 C   0  0  2  0  0  0  0  0  0  0  0  0
   -5.9353  -36.2341  -17.2909 C   0  0  1  0  0  0  0  0  0  0  0  0
   -5.7048  -37.3768  -16.2933 C   0  0  1  0  0  0  0  0  0  0  0  0
   -4.4409  -38.1349  -16.6379 C   0  0  0  0  0  0  0  0  0  0  0  0
   -7.4977  -37.8225  -14.0225 O   0  0  0  0  0  0  0  0  0  0  0  0
   -5.5694  -36.6726  -15.1068 O   0  0  0  0  0  0  0  0  0  0  0  0
   -6.5233  -34.0610  -16.6755 O   0  0  0  0  0  0  0  0  0  0  0  0
   -6.6068  -36.6702  -18.4109 O   0  0  0  0  0  0  0  0  0  0  0  0
   -3.4124  -37.5767  -15.8759 O   0  0  0  0  0  0  0  0  0  0  0  0
  1  2  1  0
  1  7  1  1
  1 11  1  0
  2  3  1  0
  2  8  1  1
  3  4  1  0
  3  9  1  1
  5  4  1  0
  4 10  1  6
  5  6  1  6
 11  5  1  0
  6 12  1  0
 14  7  1  0
 14 13  1  1
 13 19  1  0
 14 15  1  0
 20 14  1  0
 16 15  1  0
 15 21  1  1
 17 16  1  0
 16 22  1  6
 17 18  1  6
 17 20  1  0
 23 18  1  0
M  END
$$$$
