
     RDKit          3D

 23 24  0  0  0  0  0  0  0  0999 V2000
   -5.6530  -34.0175  -15.2696 C   0  0  1  0  0  0  0  0  0  0  0  0
   -4.5513  -34.9975  -15.0309 C   0  0  1  0  0  0  0  0  0  0  0  0
   -4.4287  -35.9898  -16.1732 C   0  0  2  0  0  0  0  0  0  0  0  0
   -5.8046  -36.3218  -16.6945 C   0  0  1  0  0  0  0  0  0  0  0  0
   -6.5788  -35.1048  -17.1016 C   0  0  1  0  0  0  0  0  0  0  0  0
   -8.0804  -35.2637  -16.8538 C   0  0  0  0  0  0  0  0  0  0  0  0
   -5.2271  -32.7816  -14.8581 O   0  0  0  0  0  0  0  0  0  0  0  0
   -3.3323  -34.3055  -14.9988 O   0  0  0  0  0  0  0  0  0  0  0  0
   -3.7481  -37.1007  -15.7271 O   0  0  0  0  0  0  0  0  0  0  0  0
   -5.6502  -37.2027  -17.7644 O   0  0  0  0  0  0  0  0  0  0  0  0
   -6.0904  -33.9327  -16.5687 O   0  0  0  0  0  0  0  0  0  0  0  0
   -8.7521  -34.1964  -17.4506 O   0  0  0  0  0  0  0  0  0  0  0  0
   -5.6517  -31.0672  -13.2231 C   0  0  0  0  0  0  0  0  0  0  0  0
   -6.2075  -31.9998  -14.2701 C   0  0  1  0  0  0  0  0  0  0  0  0
   -6.8440  -31.1976  -15.3835 C   0  0  2  0  0  0  0  0  0  0  0  0
   -8.3322  -31.4753  -15.2558 C   0  0  1  0  0  0  0  0  0  0  0  0
   -8.3641  -31.9157  -13.7864 C   0  0  1  0  0  0  0  0  0  0  0  0
   -9.6224  -32.7052  -13.4963 C   0  0  0  0  0  0  0  0  0  0  0  0
   -6.6439  -30.5008  -12.4316 O   0  0  0  0  0  0  0  0  0  0  0  0
   -7.2339  -32.7162  -13.7226 O   0  0  0  0  0  0  0  0  0  0  0  0
   -6.4612  -31.6685  -16.6375 O   0  0  0  0  0  0  0  0  0  0  0  0
   -9.0122  -30.2929  -15.4429 O   0  0  0  0  0  0  0  0  0  0  0  0
   -9.2817  -33.6812  -12.5575 O   0  0  0  0  0  0  0  0  0  0  0  0
  1  2  1  0
  1  7  1  6
  1 11  1  0
  2  3  1  0
  2  8  1  6
  3  4  1  0
  3  9  1  1
  5  4  1  0
  4 10  1  6
  5  6  1  1
 11  5  1  0
  6 12  1  0
 14  7  1  0
 14 13  1  1
 13 19  1  0
 14 15  1  0
 20 14  1  0
 16 15  1  0
 15 21  1  6
 17 16  1  0
 16 22  1  1
 17 18  1  6
 17 20  1  0
 23 18  1  0
M  END
$$$$
