
     RDKit          3D

 23 24  0  0  0  0  0  0  0  0999 V2000
   -7.1544  -34.0732  -15.0496 C   0  0  1  0  0  0  0  0  0  0  0  0
   -7.9144  -35.3301  -14.7783 C   0  0  1  0  0  0  0  0  0  0  0  0
   -7.0356  -36.5585  -14.9301 C   0  0  2  0  0  0  0  0  0  0  0  0
   -6.0695  -36.3422  -16.0681 C   0  0  1  0  0  0  0  0  0  0  0  0
   -5.2528  -35.0962  -15.9053 C   0  0  1  0  0  0  0  0  0  0  0  0
   -4.9214  -34.4412  -17.2480 C   0  0  0  0  0  0  0  0  0  0  0  0
   -7.5460  -33.1275  -14.1382 O   0  0  0  0  0  0  0  0  0  0  0  0
   -8.3292  -35.3252  -13.4389 O   0  0  0  0  0  0  0  0  0  0  0  0
   -7.8394  -37.6606  -15.1188 O   0  0  0  0  0  0  0  0  0  0  0  0
   -5.2557  -37.4715  -16.1523 O   0  0  0  0  0  0  0  0  0  0  0  0
   -5.7870  -34.1955  -15.0112 O   0  0  0  0  0  0  0  0  0  0  0  0
   -3.7666  -33.6720  -17.1026 O   0  0  0  0  0  0  0  0  0  0  0  0
   -8.7953  -31.0704  -14.1288 C   0  0  0  0  0  0  0  0  0  0  0  0
   -7.5974  -31.8352  -14.6337 C   0  0  1  0  0  0  0  0  0  0  0  0
   -6.3262  -31.1503  -14.1830 C   0  0  2  0  0  0  0  0  0  0  0  0
   -5.7147  -30.5959  -15.4586 C   0  0  1  0  0  0  0  0  0  0  0  0
   -6.9794  -30.5524  -16.3262 C   0  0  1  0  0  0  0  0  0  0  0  0
   -6.6141  -30.4917  -17.7938 C   0  0  0  0  0  0  0  0  0  0  0  0
   -9.1227  -31.3952  -12.8178 O   0  0  0  0  0  0  0  0  0  0  0  0
   -7.5706  -31.7627  -15.9978 O   0  0  0  0  0  0  0  0  0  0  0  0
   -5.4072  -32.0626  -13.6694 O   0  0  0  0  0  0  0  0  0  0  0  0
   -5.2385  -29.3307  -15.1975 O   0  0  0  0  0  0  0  0  0  0  0  0
   -6.9379  -31.7335  -18.3443 O   0  0  0  0  0  0  0  0  0  0  0  0
  1  2  1  0
  1  7  1  1
  1 11  1  0
  2  3  1  0
  2  8  1  1
  3  4  1  0
  3  9  1  6
  5  4  1  0
  4 10  1  1
  5  6  1  6
 11  5  1  0
  6 12  1  0
 14  7  1  0
 14 13  1  1
 13 19  1  0
 14 15  1  0
 20 14  1  0
 16 15  1  0
 15 21  1  6
 17 16  1  0
 16 22  1  1
 17 18  1  6
 17 20  1  0
 23 18  1  0
M  END
$$$$
