
     RDKit          3D

 23 24  0  0  0  0  0  0  0  0999 V2000
   -7.0715  -33.4305  -14.6719 C   0  0  1  0  0  0  0  0  0  0  0  0
   -7.3590  -32.4122  -13.6177 C   0  0  1  0  0  0  0  0  0  0  0  0
   -7.8631  -31.1125  -14.2187 C   0  0  2  0  0  0  0  0  0  0  0  0
   -7.1452  -30.8540  -15.5199 C   0  0  1  0  0  0  0  0  0  0  0  0
   -7.2693  -31.9932  -16.4858 C   0  0  1  0  0  0  0  0  0  0  0  0
   -6.0222  -32.1512  -17.3584 C   0  0  0  0  0  0  0  0  0  0  0  0
   -7.4981  -34.6518  -14.2193 O   0  0  0  0  0  0  0  0  0  0  0  0
   -8.4023  -32.8842  -12.8085 O   0  0  0  0  0  0  0  0  0  0  0  0
   -7.6836  -30.0995  -13.3034 O   0  0  0  0  0  0  0  0  0  0  0  0
   -7.6603  -29.6761  -16.0601 O   0  0  0  0  0  0  0  0  0  0  0  0
   -7.6396  -33.1817  -15.8973 O   0  0  0  0  0  0  0  0  0  0  0  0
   -5.7845  -30.9506  -18.0281 O   0  0  0  0  0  0  0  0  0  0  0  0
   -6.6376  -36.8846  -13.9607 C   0  0  0  0  0  0  0  0  0  0  0  0
   -6.9539  -35.7366  -14.8864 C   0  0  1  0  0  0  0  0  0  0  0  0
   -7.9797  -36.1720  -15.9093 C   0  0  2  0  0  0  0  0  0  0  0  0
   -7.2233  -36.1964  -17.2268 C   0  0  1  0  0  0  0  0  0  0  0  0
   -5.7969  -36.3270  -16.6767 C   0  0  1  0  0  0  0  0  0  0  0  0
   -4.7852  -35.9034  -17.7197 C   0  0  0  0  0  0  0  0  0  0  0  0
   -5.6058  -36.5898  -13.0775 O   0  0  0  0  0  0  0  0  0  0  0  0
   -5.8374  -35.4367  -15.6146 O   0  0  0  0  0  0  0  0  0  0  0  0
   -8.9924  -35.2265  -16.0536 O   0  0  0  0  0  0  0  0  0  0  0  0
   -7.6004  -37.3226  -17.9231 O   0  0  0  0  0  0  0  0  0  0  0  0
   -4.2022  -34.7198  -17.2623 O   0  0  0  0  0  0  0  0  0  0  0  0
  1  2  1  0
  1  7  1  1
  1 11  1  0
  2  3  1  0
  2  8  1  1
  3  4  1  0
  3  9  1  1
  5  4  1  0
  4 10  1  6
  5  6  1  1
 11  5  1  0
  6 12  1  0
 14  7  1  0
 14 13  1  1
 13 19  1  0
 14 15  1  0
 20 14  1  0
 16 15  1  0
 15 21  1  6
 17 16  1  0
 16 22  1  6
 17 18  1  6
 17 20  1  0
 23 18  1  0
M  END
$$$$
