
     RDKit          3D

 23 24  0  0  0  0  0  0  0  0999 V2000
   -7.2265  -33.8666  -15.8864 C   0  0  1  0  0  0  0  0  0  0  0  0
   -7.7948  -34.3638  -17.1751 C   0  0  1  0  0  0  0  0  0  0  0  0
   -7.5861  -35.8585  -17.3384 C   0  0  2  0  0  0  0  0  0  0  0  0
   -6.2453  -36.2401  -16.7621 C   0  0  1  0  0  0  0  0  0  0  0  0
   -6.0863  -35.8134  -15.3342 C   0  0  1  0  0  0  0  0  0  0  0  0
   -4.6405  -35.4411  -14.9985 C   0  0  0  0  0  0  0  0  0  0  0  0
   -8.0938  -32.9452  -15.3599 O   0  0  0  0  0  0  0  0  0  0  0  0
   -9.1842  -34.1759  -17.1568 O   0  0  0  0  0  0  0  0  0  0  0  0
   -7.7015  -36.1813  -18.6721 O   0  0  0  0  0  0  0  0  0  0  0  0
   -6.1058  -37.6212  -16.8946 O   0  0  0  0  0  0  0  0  0  0  0  0
   -6.9734  -34.8346  -14.9456 O   0  0  0  0  0  0  0  0  0  0  0  0
   -4.4840  -35.4425  -13.6122 O   0  0  0  0  0  0  0  0  0  0  0  0
   -7.8632  -30.5785  -15.7312 C   0  0  0  0  0  0  0  0  0  0  0  0
   -7.4939  -31.7836  -14.9029 C   0  0  1  0  0  0  0  0  0  0  0  0
   -7.9632  -31.5883  -13.4782 C   0  0  2  0  0  0  0  0  0  0  0  0
   -6.6861  -31.4319  -12.6702 C   0  0  1  0  0  0  0  0  0  0  0  0
   -5.7438  -30.9993  -13.8011 C   0  0  1  0  0  0  0  0  0  0  0  0
   -4.3005  -31.2234  -13.4040 C   0  0  0  0  0  0  0  0  0  0  0  0
   -7.3544  -29.3952  -15.2090 O   0  0  0  0  0  0  0  0  0  0  0  0
   -6.1325  -31.8593  -14.8168 O   0  0  0  0  0  0  0  0  0  0  0  0
   -8.6025  -32.7252  -12.9890 O   0  0  0  0  0  0  0  0  0  0  0  0
   -6.8726  -30.4208  -11.7546 O   0  0  0  0  0  0  0  0  0  0  0  0
   -4.0148  -32.5672  -13.6542 O   0  0  0  0  0  0  0  0  0  0  0  0
  1  2  1  0
  1  7  1  1
  1 11  1  0
  2  3  1  0
  2  8  1  1
  3  4  1  0
  3  9  1  6
  5  4  1  0
  4 10  1  1
  5  6  1  6
 11  5  1  0
  6 12  1  0
 14  7  1  0
 14 13  1  6
 13 19  1  0
 14 15  1  0
 20 14  1  0
 16 15  1  0
 15 21  1  1
 17 16  1  0
 16 22  1  1
 17 18  1  1
 17 20  1  0
 23 18  1  0
M  END
$$$$
