
     RDKit          3D

 23 24  0  0  0  0  0  0  0  0999 V2000
   -7.1328  -33.1700  -14.9963 C   0  0  1  0  0  0  0  0  0  0  0  0
   -7.3774  -32.7007  -13.5995 C   0  0  1  0  0  0  0  0  0  0  0  0
   -7.6319  -31.2050  -13.5490 C   0  0  2  0  0  0  0  0  0  0  0  0
   -6.7596  -30.5165  -14.5689 C   0  0  1  0  0  0  0  0  0  0  0  0
   -6.9462  -31.0615  -15.9526 C   0  0  1  0  0  0  0  0  0  0  0  0
   -5.6535  -31.0208  -16.7704 C   0  0  0  0  0  0  0  0  0  0  0  0
   -7.7693  -34.3720  -15.1648 O   0  0  0  0  0  0  0  0  0  0  0  0
   -8.5515  -33.3003  -13.1222 O   0  0  0  0  0  0  0  0  0  0  0  0
   -7.4033  -30.7574  -12.2669 O   0  0  0  0  0  0  0  0  0  0  0  0
   -7.0481  -29.1531  -14.5206 O   0  0  0  0  0  0  0  0  0  0  0  0
   -7.5362  -32.3053  -15.9840 O   0  0  0  0  0  0  0  0  0  0  0  0
   -5.2036  -29.7020  -16.8387 O   0  0  0  0  0  0  0  0  0  0  0  0
   -8.1226  -35.0237  -17.4545 C   0  0  0  0  0  0  0  0  0  0  0  0
   -7.2820  -35.1417  -16.2079 C   0  0  1  0  0  0  0  0  0  0  0  0
   -5.8795  -34.6489  -16.4881 C   0  0  2  0  0  0  0  0  0  0  0  0
   -5.0138  -35.8959  -16.4260 C   0  0  1  0  0  0  0  0  0  0  0  0
   -6.0993  -36.9491  -16.6842 C   0  0  1  0  0  0  0  0  0  0  0  0
   -5.6375  -38.3125  -16.2167 C   0  0  0  0  0  0  0  0  0  0  0  0
   -9.3442  -35.6763  -17.3387 O   0  0  0  0  0  0  0  0  0  0  0  0
   -7.1341  -36.4644  -15.8991 O   0  0  0  0  0  0  0  0  0  0  0  0
   -5.4234  -33.8017  -15.4808 O   0  0  0  0  0  0  0  0  0  0  0  0
   -4.1046  -35.8451  -17.4586 O   0  0  0  0  0  0  0  0  0  0  0  0
   -6.2338  -38.5389  -14.9744 O   0  0  0  0  0  0  0  0  0  0  0  0
  1  2  1  0
  1  7  1  6
  1 11  1  0
  2  3  1  0
  2  8  1  6
  3  4  1  0
  3  9  1  1
  5  4  1  0
  4 10  1  6
  5  6  1  1
 11  5  1  0
  6 12  1  0
 14  7  1  0
 14 13  1  6
 13 19  1  0
 14 15  1  0
 20 14  1  0
 16 15  1  0
 15 21  1  1
 17 16  1  0
 16 22  1  6
 17 18  1  1
 17 20  1  0
 23 18  1  0
M  END
$$$$
