
     RDKit          3D

 24 27  0  0  0  0  0  0  0  0999 V2000
   91.8235   94.1520  -42.7921 N   0  0  0  0  0  0  0  0  0  0  0  0
   91.7081   95.4585  -42.4538 C   0  0  0  0  0  0  0  0  0  0  0  0
   91.1880   96.1830  -43.5054 C   0  0  0  0  0  0  0  0  0  0  0  0
   90.9815   97.5408  -43.3891 C   0  0  0  0  0  0  0  0  0  0  0  0
   91.2799   98.2370  -42.2307 C   0  0  0  0  0  0  0  0  0  0  0  0
   91.8006   97.5161  -41.1757 C   0  0  0  0  0  0  0  0  0  0  0  0
   92.0063   96.1569  -41.2952 C   0  0  0  0  0  0  0  0  0  0  0  0
   91.0465   99.7028  -42.1335 C   0  0  0  0  0  0  0  0  0  0  0  0
   91.3881   94.0148  -44.0437 C   0  0  0  0  0  0  0  0  0  0  0  0
   90.9861   95.2447  -44.5223 C   0  0  0  0  0  0  0  0  0  0  0  0
   90.4875   95.4180  -45.7907 C   0  0  0  0  0  0  0  0  0  0  0  0
   90.3813   94.3235  -46.6253 C   0  0  0  0  0  0  0  0  0  0  0  0
   90.7774   93.0950  -46.1620 C   0  0  0  0  0  0  0  0  0  0  0  0
   91.2775   92.9222  -44.8896 C   0  0  0  0  0  0  0  0  0  0  0  0
   92.3307   93.0701  -41.9538 C   0  0  0  0  0  0  0  0  0  0  0  0
   90.6869   91.8840  -47.0121 C   0  0  0  0  0  0  0  0  0  0  0  0
   90.0732   91.7637  -48.2331 C   0  0  0  0  0  0  0  0  0  0  0  0
   90.1177   90.5645  -48.8227 C   0  0  0  0  0  0  0  0  0  0  0  0
   90.7688   89.5583  -48.1640 C   0  0  0  0  0  0  0  0  0  0  0  0
   91.3019   90.3185  -46.7355 S   0  0  0  0  0  0  0  0  0  0  0  0
   90.9516   88.1300  -48.6226 C   0  0  0  0  0  0  0  0  0  0  0  0
   91.1933   92.4745  -41.1590 C   0  0  0  0  0  0  0  0  0  0  0  0
   89.6833  100.0011  -41.7402 N   0  0  0  0  0  4  0  0  0  0  0  0
   89.4487  101.4068  -41.5787 C   0  0  0  0  0  0  0  0  0  0  0  0
  1  2  1  0
  1  9  1  0
  1 15  1  0
  2  3  2  0
  2  7  1  0
  3  4  1  0
  3 10  1  0
  4  5  2  0
  5  6  1  0
  5  8  1  0
  6  7  2  0
  8 23  1  0
  9 10  2  0
  9 14  1  0
 10 11  1  0
 11 12  2  0
 12 13  1  0
 13 14  2  0
 13 16  1  0
 15 22  1  0
 16 17  2  0
 16 20  1  0
 17 18  1  0
 18 19  2  0
 19 20  1  0
 19 21  1  0
 23 24  1  0
M  CHG  1  23   1
M  END
$$$$
