
     RDKit          3D

 24 27  0  0  0  0  0  0  0  0999 V2000
   91.8309   94.3524  -42.9316 N   0  0  0  0  0  0  0  0  0  0  0  0
   91.5458   95.6362  -42.6071 C   0  0  0  0  0  0  0  0  0  0  0  0
   90.9043   96.2651  -43.6531 C   0  0  0  0  0  0  0  0  0  0  0  0
   90.5162   97.5835  -43.5486 C   0  0  0  0  0  0  0  0  0  0  0  0
   90.7458   98.3331  -42.4080 C   0  0  0  0  0  0  0  0  0  0  0  0
   91.3875   97.7079  -41.3587 C   0  0  0  0  0  0  0  0  0  0  0  0
   91.7748   96.3879  -41.4662 C   0  0  0  0  0  0  0  0  0  0  0  0
   90.3158   99.7545  -42.3232 C   0  0  0  0  0  0  0  0  0  0  0  0
   91.3865   94.1361  -44.1688 C   0  0  0  0  0  0  0  0  0  0  0  0
   90.8071   95.2913  -44.6519 C   0  0  0  0  0  0  0  0  0  0  0  0
   90.2570   95.3736  -45.9081 C   0  0  0  0  0  0  0  0  0  0  0  0
   90.2808   94.2612  -46.7253 C   0  0  0  0  0  0  0  0  0  0  0  0
   90.8537   93.1065  -46.2574 C   0  0  0  0  0  0  0  0  0  0  0  0
   91.4053   93.0249  -44.9972 C   0  0  0  0  0  0  0  0  0  0  0  0
   92.5033   93.3642  -42.0940 C   0  0  0  0  0  0  0  0  0  0  0  0
   90.9086   91.8806  -47.0890 C   0  0  0  0  0  0  0  0  0  0  0  0
   91.5059   90.6853  -46.7779 C   0  0  0  0  0  0  0  0  0  0  0  0
   91.4290   89.7097  -47.6888 C   0  0  0  0  0  0  0  0  0  0  0  0
   90.7639   89.9804  -48.8527 C   0  0  0  0  0  0  0  0  0  0  0  0
   90.2634   91.5950  -48.6407 S   0  0  0  0  0  0  0  0  0  0  0  0
   90.5454   89.0484  -50.0221 C   0  0  0  0  0  0  0  0  0  0  0  0
   91.5228   92.8048  -41.0909 C   0  0  0  0  0  0  0  0  0  0  0  0
   91.2786  100.6414  -42.9462 N   0  0  0  0  0  4  0  0  0  0  0  0
   90.8917  102.0204  -42.8698 C   0  0  0  0  0  0  0  0  0  0  0  0
  1  2  1  0
  1  9  1  0
  1 15  1  0
  2  3  2  0
  2  7  1  0
  3  4  1  0
  3 10  1  0
  4  5  2  0
  5  6  1  0
  5  8  1  0
  6  7  2  0
  8 23  1  0
  9 10  2  0
  9 14  1  0
 10 11  1  0
 11 12  2  0
 12 13  1  0
 13 14  2  0
 13 16  1  0
 15 22  1  0
 16 17  2  0
 16 20  1  0
 17 18  1  0
 18 19  2  0
 19 20  1  0
 19 21  1  0
 23 24  1  0
M  CHG  1  23   1
M  END
$$$$
