
     RDKit          3D

 24 27  0  0  0  0  0  0  0  0999 V2000
   92.1754   94.4221  -42.8755 N   0  0  0  0  0  0  0  0  0  0  0  0
   91.9752   95.7340  -42.6040 C   0  0  0  0  0  0  0  0  0  0  0  0
   91.4292   96.3729  -43.6970 C   0  0  0  0  0  0  0  0  0  0  0  0
   91.1385   97.7195  -43.6510 C   0  0  0  0  0  0  0  0  0  0  0  0
   91.3751   98.4884  -42.5247 C   0  0  0  0  0  0  0  0  0  0  0  0
   91.9215   97.8531  -41.4284 C   0  0  0  0  0  0  0  0  0  0  0  0
   92.2114   96.5050  -41.4775 C   0  0  0  0  0  0  0  0  0  0  0  0
   91.0514   99.9399  -42.5033 C   0  0  0  0  0  0  0  0  0  0  0  0
   91.7696   94.1976  -44.1244 C   0  0  0  0  0  0  0  0  0  0  0  0
   91.3013   95.3757  -44.6687 C   0  0  0  0  0  0  0  0  0  0  0  0
   90.8138   95.4559  -45.9506 C   0  0  0  0  0  0  0  0  0  0  0  0
   90.7880   94.3176  -46.7313 C   0  0  0  0  0  0  0  0  0  0  0  0
   91.2505   93.1399  -46.2024 C   0  0  0  0  0  0  0  0  0  0  0  0
   91.7394   93.0604  -44.9165 C   0  0  0  0  0  0  0  0  0  0  0  0
   92.7338   93.4156  -41.9780 C   0  0  0  0  0  0  0  0  0  0  0  0
   91.2477   91.8857  -46.9926 C   0  0  0  0  0  0  0  0  0  0  0  0
   90.6130   91.6508  -48.1859 C   0  0  0  0  0  0  0  0  0  0  0  0
   90.7510   90.4333  -48.7210 C   0  0  0  0  0  0  0  0  0  0  0  0
   91.5107   89.5237  -48.0386 C   0  0  0  0  0  0  0  0  0  0  0  0
   92.0120   90.3977  -46.6648 S   0  0  0  0  0  0  0  0  0  0  0  0
   91.8111   88.0972  -48.4368 C   0  0  0  0  0  0  0  0  0  0  0  0
   91.6398   92.8706  -41.0911 C   0  0  0  0  0  0  0  0  0  0  0  0
   89.7415  100.1862  -41.9329 N   0  0  0  0  0  4  0  0  0  0  0  0
   89.4266  101.5832  -41.8519 C   0  0  0  0  0  0  0  0  0  0  0  0
  1  2  1  0
  1  9  1  0
  1 15  1  0
  2  3  2  0
  2  7  1  0
  3  4  1  0
  3 10  1  0
  4  5  2  0
  5  6  1  0
  5  8  1  0
  6  7  2  0
  8 23  1  0
  9 10  2  0
  9 14  1  0
 10 11  1  0
 11 12  2  0
 12 13  1  0
 13 14  2  0
 13 16  1  0
 15 22  1  0
 16 17  2  0
 16 20  1  0
 17 18  1  0
 18 19  2  0
 19 20  1  0
 19 21  1  0
 23 24  1  0
M  CHG  1  23   1
M  END
$$$$
