
     RDKit          3D

 24 27  0  0  0  0  0  0  0  0999 V2000
   91.7342   94.1083  -42.7188 N   0  0  0  0  0  0  0  0  0  0  0  0
   91.5951   95.4106  -42.3734 C   0  0  0  0  0  0  0  0  0  0  0  0
   91.0872   96.1363  -43.4300 C   0  0  0  0  0  0  0  0  0  0  0  0
   90.8609   97.4905  -43.3080 C   0  0  0  0  0  0  0  0  0  0  0  0
   91.1268   98.1817  -42.1387 C   0  0  0  0  0  0  0  0  0  0  0  0
   91.6352   97.4594  -41.0786 C   0  0  0  0  0  0  0  0  0  0  0  0
   91.8607   96.1039  -41.2038 C   0  0  0  0  0  0  0  0  0  0  0  0
   90.8726   99.6435  -42.0355 C   0  0  0  0  0  0  0  0  0  0  0  0
   91.3261   93.9750  -43.9800 C   0  0  0  0  0  0  0  0  0  0  0  0
   90.9181   95.2034  -44.4577 C   0  0  0  0  0  0  0  0  0  0  0  0
   90.4431   95.3799  -45.7346 C   0  0  0  0  0  0  0  0  0  0  0  0
   90.3680   94.2905  -46.5792 C   0  0  0  0  0  0  0  0  0  0  0  0
   90.7704   93.0637  -46.1170 C   0  0  0  0  0  0  0  0  0  0  0  0
   91.2467   92.8876  -44.8359 C   0  0  0  0  0  0  0  0  0  0  0  0
   92.2382   93.0265  -41.8784 C   0  0  0  0  0  0  0  0  0  0  0  0
   90.7128   91.8581  -46.9776 C   0  0  0  0  0  0  0  0  0  0  0  0
   90.1725   91.7531  -48.2343 C   0  0  0  0  0  0  0  0  0  0  0  0
   90.2340   90.5561  -48.8266 C   0  0  0  0  0  0  0  0  0  0  0  0
   90.8281   89.5367  -48.1352 C   0  0  0  0  0  0  0  0  0  0  0  0
   91.2852   90.2817  -46.6728 S   0  0  0  0  0  0  0  0  0  0  0  0
   91.0160   88.1077  -48.5896 C   0  0  0  0  0  0  0  0  0  0  0  0
   91.0886   92.3922  -41.1325 C   0  0  0  0  0  0  0  0  0  0  0  0
   89.5540   99.9194  -41.4997 N   0  0  0  0  0  4  0  0  0  0  0  0
   88.5308   99.8897  -42.5044 C   0  0  0  0  0  0  0  0  0  0  0  0
  1  2  1  0
  1  9  1  0
  1 15  1  0
  2  3  2  0
  2  7  1  0
  3  4  1  0
  3 10  1  0
  4  5  2  0
  5  6  1  0
  5  8  1  0
  6  7  2  0
  8 23  1  0
  9 10  2  0
  9 14  1  0
 10 11  1  0
 11 12  2  0
 12 13  1  0
 13 14  2  0
 13 16  1  0
 15 22  1  0
 16 17  2  0
 16 20  1  0
 17 18  1  0
 18 19  2  0
 19 20  1  0
 19 21  1  0
 23 24  1  0
M  CHG  1  23   1
M  END
$$$$
