
     RDKit          3D

 24 27  0  0  0  0  0  0  0  0999 V2000
   91.6400   93.8654  -42.7142 N   0  0  0  0  0  0  0  0  0  0  0  0
   91.6326   95.1689  -42.3460 C   0  0  0  0  0  0  0  0  0  0  0  0
   91.3043   95.9695  -43.4194 C   0  0  0  0  0  0  0  0  0  0  0  0
   91.2350   97.3389  -43.2793 C   0  0  0  0  0  0  0  0  0  0  0  0
   91.4869   97.9721  -42.0746 C   0  0  0  0  0  0  0  0  0  0  0  0
   91.8158   97.1748  -40.9975 C   0  0  0  0  0  0  0  0  0  0  0  0
   91.8844   95.8042  -41.1409 C   0  0  0  0  0  0  0  0  0  0  0  0
   91.4048   99.4522  -41.9525 C   0  0  0  0  0  0  0  0  0  0  0  0
   91.3227   93.8049  -44.0067 C   0  0  0  0  0  0  0  0  0  0  0  0
   91.1072   95.0821  -44.4819 C   0  0  0  0  0  0  0  0  0  0  0  0
   90.7627   95.3375  -45.7870 C   0  0  0  0  0  0  0  0  0  0  0  0
   90.6247   94.2802  -46.6639 C   0  0  0  0  0  0  0  0  0  0  0  0
   90.8361   93.0055  -46.2045 C   0  0  0  0  0  0  0  0  0  0  0  0
   91.1816   92.7503  -44.8951 C   0  0  0  0  0  0  0  0  0  0  0  0
   91.9387   92.7156  -41.8661 C   0  0  0  0  0  0  0  0  0  0  0  0
   90.7026   91.8310  -47.0990 C   0  0  0  0  0  0  0  0  0  0  0  0
   90.1844   91.8020  -48.3690 C   0  0  0  0  0  0  0  0  0  0  0  0
   90.1642   90.6196  -48.9927 C   0  0  0  0  0  0  0  0  0  0  0  0
   90.6597   89.5385  -48.3175 C   0  0  0  0  0  0  0  0  0  0  0  0
   91.1411   90.2066  -46.8261 S   0  0  0  0  0  0  0  0  0  0  0  0
   90.7439   88.1113  -48.8072 C   0  0  0  0  0  0  0  0  0  0  0  0
   93.4269   92.4595  -41.8724 C   0  0  0  0  0  0  0  0  0  0  0  0
   90.1015   99.8771  -41.4804 N   0  0  0  0  0  4  0  0  0  0  0  0
   90.0164  101.2965  -41.2924 C   0  0  0  0  0  0  0  0  0  0  0  0
  1  2  1  0
  1  9  1  0
  1 15  1  0
  2  3  2  0
  2  7  1  0
  3  4  1  0
  3 10  1  0
  4  5  2  0
  5  6  1  0
  5  8  1  0
  6  7  2  0
  8 23  1  0
  9 10  2  0
  9 14  1  0
 10 11  1  0
 11 12  2  0
 12 13  1  0
 13 14  2  0
 13 16  1  0
 15 22  1  0
 16 17  2  0
 16 20  1  0
 17 18  1  0
 18 19  2  0
 19 20  1  0
 19 21  1  0
 23 24  1  0
M  CHG  1  23   1
M  END
$$$$
