
     RDKit          3D

 24 27  0  0  0  0  0  0  0  0999 V2000
   92.0606   93.9754  -42.6699 N   0  0  0  0  0  0  0  0  0  0  0  0
   91.8956   95.2458  -42.2301 C   0  0  0  0  0  0  0  0  0  0  0  0
   91.2745   96.0113  -43.1942 C   0  0  0  0  0  0  0  0  0  0  0  0
   91.0025   97.3431  -42.9664 C   0  0  0  0  0  0  0  0  0  0  0  0
   91.3326   97.9720  -41.7785 C   0  0  0  0  0  0  0  0  0  0  0  0
   91.9542   97.2099  -40.8107 C   0  0  0  0  0  0  0  0  0  0  0  0
   92.2252   95.8768  -41.0417 C   0  0  0  0  0  0  0  0  0  0  0  0
   91.0268   99.4112  -41.5601 C   0  0  0  0  0  0  0  0  0  0  0  0
   91.5582   93.9018  -43.9017 C   0  0  0  0  0  0  0  0  0  0  0  0
   91.0623   95.1370  -44.2646 C   0  0  0  0  0  0  0  0  0  0  0  0
   90.4792   95.3701  -45.4866 C   0  0  0  0  0  0  0  0  0  0  0  0
   90.3819   94.3330  -46.3924 C   0  0  0  0  0  0  0  0  0  0  0  0
   90.8709   93.1000  -46.0443 C   0  0  0  0  0  0  0  0  0  0  0  0
   91.4556   92.8671  -44.8184 C   0  0  0  0  0  0  0  0  0  0  0  0
   92.6751   92.8683  -41.9439 C   0  0  0  0  0  0  0  0  0  0  0  0
   90.7945   91.9488  -46.9751 C   0  0  0  0  0  0  0  0  0  0  0  0
   90.0478   91.8489  -48.1217 C   0  0  0  0  0  0  0  0  0  0  0  0
   90.1362   90.7058  -48.8095 C   0  0  0  0  0  0  0  0  0  0  0  0
   90.9603   89.7320  -48.3169 C   0  0  0  0  0  0  0  0  0  0  0  0
   91.5902   90.4431  -46.9027 S   0  0  0  0  0  0  0  0  0  0  0  0
   91.2240   88.3673  -48.9101 C   0  0  0  0  0  0  0  0  0  0  0  0
   91.5964   92.0208  -41.3127 C   0  0  0  0  0  0  0  0  0  0  0  0
   92.1243  100.2598  -41.9813 N   0  0  0  0  0  4  0  0  0  0  0  0
   91.8562  101.6539  -41.7772 C   0  0  0  0  0  0  0  0  0  0  0  0
  1  2  1  0
  1  9  1  0
  1 15  1  0
  2  3  2  0
  2  7  1  0
  3  4  1  0
  3 10  1  0
  4  5  2  0
  5  6  1  0
  5  8  1  0
  6  7  2  0
  8 23  1  0
  9 10  2  0
  9 14  1  0
 10 11  1  0
 11 12  2  0
 12 13  1  0
 13 14  2  0
 13 16  1  0
 15 22  1  0
 16 17  2  0
 16 20  1  0
 17 18  1  0
 18 19  2  0
 19 20  1  0
 19 21  1  0
 23 24  1  0
M  CHG  1  23   1
M  END
$$$$
