
     RDKit          3D

 24 27  0  0  0  0  0  0  0  0999 V2000
   91.5220   93.9073  -42.7910 N   0  0  0  0  0  0  0  0  0  0  0  0
   91.5099   95.2118  -42.4262 C   0  0  0  0  0  0  0  0  0  0  0  0
   91.1947   96.0097  -43.5056 C   0  0  0  0  0  0  0  0  0  0  0  0
   91.1235   97.3794  -43.3698 C   0  0  0  0  0  0  0  0  0  0  0  0
   91.3606   98.0157  -42.1636 C   0  0  0  0  0  0  0  0  0  0  0  0
   91.6765   97.2212  -41.0807 C   0  0  0  0  0  0  0  0  0  0  0  0
   91.7469   95.8502  -41.2197 C   0  0  0  0  0  0  0  0  0  0  0  0
   91.2768   99.4961  -42.0463 C   0  0  0  0  0  0  0  0  0  0  0  0
   91.2205   93.8436  -44.0871 C   0  0  0  0  0  0  0  0  0  0  0  0
   91.0106   95.1195  -44.5681 C   0  0  0  0  0  0  0  0  0  0  0  0
   90.6821   95.3716  -45.8780 C   0  0  0  0  0  0  0  0  0  0  0  0
   90.5549   94.3121  -46.7538 C   0  0  0  0  0  0  0  0  0  0  0  0
   90.7609   93.0385  -46.2886 C   0  0  0  0  0  0  0  0  0  0  0  0
   91.0904   92.7867  -44.9745 C   0  0  0  0  0  0  0  0  0  0  0  0
   91.8105   92.7598  -41.9364 C   0  0  0  0  0  0  0  0  0  0  0  0
   90.6384   91.8618  -47.1818 C   0  0  0  0  0  0  0  0  0  0  0  0
   90.1918   91.8395  -48.4788 C   0  0  0  0  0  0  0  0  0  0  0  0
   90.1670   90.6533  -49.0951 C   0  0  0  0  0  0  0  0  0  0  0  0
   90.5870   89.5619  -48.3861 C   0  0  0  0  0  0  0  0  0  0  0  0
   91.0060   90.2260  -46.8741 S   0  0  0  0  0  0  0  0  0  0  0  0
   90.6506   88.1287  -48.8611 C   0  0  0  0  0  0  0  0  0  0  0  0
   93.2979   92.4990  -41.9301 C   0  0  0  0  0  0  0  0  0  0  0  0
   90.0000   99.9169  -41.5035 N   0  0  0  0  0  4  0  0  0  0  0  0
   89.9436  101.3276  -41.2506 C   0  0  0  0  0  0  0  0  0  0  0  0
  1  2  1  0
  1  9  1  0
  1 15  1  0
  2  3  2  0
  2  7  1  0
  3  4  1  0
  3 10  1  0
  4  5  2  0
  5  6  1  0
  5  8  1  0
  6  7  2  0
  8 23  1  0
  9 10  2  0
  9 14  1  0
 10 11  1  0
 11 12  2  0
 12 13  1  0
 13 14  2  0
 13 16  1  0
 15 22  1  0
 16 17  2  0
 16 20  1  0
 17 18  1  0
 18 19  2  0
 19 20  1  0
 19 21  1  0
 23 24  1  0
M  CHG  1  23   1
M  END
$$$$
