
     RDKit          3D

 24 27  0  0  0  0  0  0  0  0999 V2000
   91.5508   93.7934  -42.6537 N   0  0  0  0  0  0  0  0  0  0  0  0
   91.3853   95.0665  -42.2218 C   0  0  0  0  0  0  0  0  0  0  0  0
   90.9053   95.8611  -43.2413 C   0  0  0  0  0  0  0  0  0  0  0  0
   90.6597   97.2010  -43.0315 C   0  0  0  0  0  0  0  0  0  0  0  0
   90.8780   97.8095  -41.8077 C   0  0  0  0  0  0  0  0  0  0  0  0
   91.3583   97.0182  -40.7845 C   0  0  0  0  0  0  0  0  0  0  0  0
   91.6033   95.6771  -40.9976 C   0  0  0  0  0  0  0  0  0  0  0  0
   90.6039   99.2580  -41.6099 C   0  0  0  0  0  0  0  0  0  0  0  0
   91.1871   93.7467  -43.9345 C   0  0  0  0  0  0  0  0  0  0  0  0
   90.7816   95.0023  -44.3377 C   0  0  0  0  0  0  0  0  0  0  0  0
   90.3482   95.2651  -45.6146 C   0  0  0  0  0  0  0  0  0  0  0  0
   90.3141   94.2380  -46.5364 C   0  0  0  0  0  0  0  0  0  0  0  0
   90.7145   92.9850  -46.1487 C   0  0  0  0  0  0  0  0  0  0  0  0
   91.1491   92.7223  -44.8676 C   0  0  0  0  0  0  0  0  0  0  0  0
   92.0383   92.6591  -41.8751 C   0  0  0  0  0  0  0  0  0  0  0  0
   90.6997   91.8434  -47.0941 C   0  0  0  0  0  0  0  0  0  0  0  0
   90.1420   91.8025  -48.3469 C   0  0  0  0  0  0  0  0  0  0  0  0
   90.2507   90.6559  -49.0259 C   0  0  0  0  0  0  0  0  0  0  0  0
   90.9065   89.6202  -48.4197 C   0  0  0  0  0  0  0  0  0  0  0  0
   91.3538   90.2796  -46.9138 S   0  0  0  0  0  0  0  0  0  0  0  0
   91.1553   88.2389  -48.9800 C   0  0  0  0  0  0  0  0  0  0  0  0
   93.5346   92.5413  -42.0412 C   0  0  0  0  0  0  0  0  0  0  0  0
   91.8305  100.0251  -41.5149 N   0  0  0  0  0  4  0  0  0  0  0  0
   91.5936  101.4270  -41.3261 C   0  0  0  0  0  0  0  0  0  0  0  0
  1  2  1  0
  1  9  1  0
  1 15  1  0
  2  3  2  0
  2  7  1  0
  3  4  1  0
  3 10  1  0
  4  5  2  0
  5  6  1  0
  5  8  1  0
  6  7  2  0
  8 23  1  0
  9 10  2  0
  9 14  1  0
 10 11  1  0
 11 12  2  0
 12 13  1  0
 13 14  2  0
 13 16  1  0
 15 22  1  0
 16 17  2  0
 16 20  1  0
 17 18  1  0
 18 19  2  0
 19 20  1  0
 19 21  1  0
 23 24  1  0
M  CHG  1  23   1
M  END
$$$$
