
     RDKit          3D

 24 27  0  0  0  0  0  0  0  0999 V2000
   92.0717   94.2777  -42.9672 N   0  0  0  0  0  0  0  0  0  0  0  0
   91.8289   95.5520  -42.5774 C   0  0  0  0  0  0  0  0  0  0  0  0
   91.2337   96.2617  -43.5987 C   0  0  0  0  0  0  0  0  0  0  0  0
   90.8938   97.5866  -43.4286 C   0  0  0  0  0  0  0  0  0  0  0  0
   91.1280   98.2633  -42.2441 C   0  0  0  0  0  0  0  0  0  0  0  0
   91.7235   97.5570  -41.2192 C   0  0  0  0  0  0  0  0  0  0  0  0
   92.0626   96.2307  -41.3925 C   0  0  0  0  0  0  0  0  0  0  0  0
   90.7507   99.6936  -42.0887 C   0  0  0  0  0  0  0  0  0  0  0  0
   91.6452   94.1469  -44.2225 C   0  0  0  0  0  0  0  0  0  0  0  0
   91.1203   95.3486  -44.6516 C   0  0  0  0  0  0  0  0  0  0  0  0
   90.6000   95.5209  -45.9113 C   0  0  0  0  0  0  0  0  0  0  0  0
   90.5985   94.4547  -46.7883 C   0  0  0  0  0  0  0  0  0  0  0  0
   91.1173   93.2546  -46.3745 C   0  0  0  0  0  0  0  0  0  0  0  0
   91.6390   93.0827  -45.1107 C   0  0  0  0  0  0  0  0  0  0  0  0
   92.6885   93.2197  -42.1731 C   0  0  0  0  0  0  0  0  0  0  0  0
   91.1429   92.0748  -47.2716 C   0  0  0  0  0  0  0  0  0  0  0  0
   90.4721   91.9113  -48.4572 C   0  0  0  0  0  0  0  0  0  0  0  0
   90.6468   90.7533  -49.1022 C   0  0  0  0  0  0  0  0  0  0  0  0
   91.4767   89.8287  -48.5309 C   0  0  0  0  0  0  0  0  0  0  0  0
   91.9908   90.6056  -47.1045 S   0  0  0  0  0  0  0  0  0  0  0  0
   91.8292   88.4593  -49.0641 C   0  0  0  0  0  0  0  0  0  0  0  0
   91.6133   92.3170  -41.6167 C   0  0  0  0  0  0  0  0  0  0  0  0
   91.8702  100.5735  -42.3612 N   0  0  0  0  0  4  0  0  0  0  0  0
   91.5321  101.9601  -42.2190 C   0  0  0  0  0  0  0  0  0  0  0  0
  1  2  1  0
  1  9  1  0
  1 15  1  0
  2  3  2  0
  2  7  1  0
  3  4  1  0
  3 10  1  0
  4  5  2  0
  5  6  1  0
  5  8  1  0
  6  7  2  0
  8 23  1  0
  9 10  2  0
  9 14  1  0
 10 11  1  0
 11 12  2  0
 12 13  1  0
 13 14  2  0
 13 16  1  0
 15 22  1  0
 16 17  2  0
 16 20  1  0
 17 18  1  0
 18 19  2  0
 19 20  1  0
 19 21  1  0
 23 24  1  0
M  CHG  1  23   1
M  END
$$$$
