
     RDKit          3D

 24 27  0  0  0  0  0  0  0  0999 V2000
   91.9996   94.3045  -42.7911 N   0  0  0  0  0  0  0  0  0  0  0  0
   91.7871   95.6089  -42.4943 C   0  0  0  0  0  0  0  0  0  0  0  0
   91.2416   96.2654  -43.5771 C   0  0  0  0  0  0  0  0  0  0  0  0
   90.9396   97.6083  -43.5055 C   0  0  0  0  0  0  0  0  0  0  0  0
   91.1640   98.3562  -42.3627 C   0  0  0  0  0  0  0  0  0  0  0  0
   91.7098   97.7034  -41.2765 C   0  0  0  0  0  0  0  0  0  0  0  0
   92.0111   96.3589  -41.3513 C   0  0  0  0  0  0  0  0  0  0  0  0
   90.8282   99.8043  -42.3138 C   0  0  0  0  0  0  0  0  0  0  0  0
   91.6021   94.1019  -44.0465 C   0  0  0  0  0  0  0  0  0  0  0  0
   91.1270   95.2869  -44.5694 C   0  0  0  0  0  0  0  0  0  0  0  0
   90.6455   95.3891  -45.8521 C   0  0  0  0  0  0  0  0  0  0  0  0
   90.6332   94.2667  -46.6556 C   0  0  0  0  0  0  0  0  0  0  0  0
   91.1027   93.0823  -46.1481 C   0  0  0  0  0  0  0  0  0  0  0  0
   91.5854   92.9808  -44.8614 C   0  0  0  0  0  0  0  0  0  0  0  0
   92.5615   93.2846  -41.9111 C   0  0  0  0  0  0  0  0  0  0  0  0
   91.1143   91.8443  -46.9634 C   0  0  0  0  0  0  0  0  0  0  0  0
   91.6767   90.6355  -46.6399 C   0  0  0  0  0  0  0  0  0  0  0  0
   91.5637   89.6506  -47.5370 C   0  0  0  0  0  0  0  0  0  0  0  0
   90.8995   89.9260  -48.7002 C   0  0  0  0  0  0  0  0  0  0  0  0
   90.4502   91.5581  -48.5070 S   0  0  0  0  0  0  0  0  0  0  0  0
   90.6446   88.9857  -49.8554 C   0  0  0  0  0  0  0  0  0  0  0  0
   91.7903   91.9969  -42.0772 C   0  0  0  0  0  0  0  0  0  0  0  0
   89.9887  100.1193  -41.1746 N   0  0  0  0  0  4  0  0  0  0  0  0
   89.6881  101.5185  -41.0783 C   0  0  0  0  0  0  0  0  0  0  0  0
  1  2  1  0
  1  9  1  0
  1 15  1  0
  2  3  2  0
  2  7  1  0
  3  4  1  0
  3 10  1  0
  4  5  2  0
  5  6  1  0
  5  8  1  0
  6  7  2  0
  8 23  1  0
  9 10  2  0
  9 14  1  0
 10 11  1  0
 11 12  2  0
 12 13  1  0
 13 14  2  0
 13 16  1  0
 15 22  1  0
 16 17  2  0
 16 20  1  0
 17 18  1  0
 18 19  2  0
 19 20  1  0
 19 21  1  0
 23 24  1  0
M  CHG  1  23   1
M  END
$$$$
