
     RDKit          3D

 24 27  0  0  0  0  0  0  0  0999 V2000
   91.4720   96.3471  -42.4000 N   0  0  0  0  0  0  0  0  0  0  0  0
   91.1012   97.1930  -43.3907 C   0  0  0  0  0  0  0  0  0  0  0  0
   90.8562   96.4934  -44.5533 C   0  0  0  0  0  0  0  0  0  0  0  0
   90.4633   97.1506  -45.6993 C   0  0  0  0  0  0  0  0  0  0  0  0
   90.2967   98.5239  -45.7433 C   0  0  0  0  0  0  0  0  0  0  0  0
   90.5408   99.2282  -44.5822 C   0  0  0  0  0  0  0  0  0  0  0  0
   90.9340   98.5675  -43.4364 C   0  0  0  0  0  0  0  0  0  0  0  0
   89.8717   99.2067  -46.9945 C   0  0  0  0  0  0  0  0  0  0  0  0
   91.4723   95.1113  -42.8977 C   0  0  0  0  0  0  0  0  0  0  0  0
   91.0979   95.1559  -44.2248 C   0  0  0  0  0  0  0  0  0  0  0  0
   91.0070   94.0295  -45.0060 C   0  0  0  0  0  0  0  0  0  0  0  0
   91.3001   92.8009  -44.4488 C   0  0  0  0  0  0  0  0  0  0  0  0
   91.6737   92.7425  -43.1306 C   0  0  0  0  0  0  0  0  0  0  0  0
   91.7646   93.8729  -42.3478 C   0  0  0  0  0  0  0  0  0  0  0  0
   91.8147   96.7014  -41.0261 C   0  0  0  0  0  0  0  0  0  0  0  0
   92.0003   91.4523  -42.4778 C   0  0  0  0  0  0  0  0  0  0  0  0
   92.1354   91.2053  -41.1351 C   0  0  0  0  0  0  0  0  0  0  0  0
   92.4361   89.9541  -40.7723 C   0  0  0  0  0  0  0  0  0  0  0  0
   92.5843   89.0248  -41.7646 C   0  0  0  0  0  0  0  0  0  0  0  0
   92.2984   89.9282  -43.1805 S   0  0  0  0  0  0  0  0  0  0  0  0
   92.9205   87.5600  -41.6064 C   0  0  0  0  0  0  0  0  0  0  0  0
   91.5623   95.5171  -40.1237 C   0  0  0  0  0  0  0  0  0  0  0  0
   88.5168   99.7126  -46.8925 N   0  0  0  0  0  4  0  0  0  0  0  0
   88.1255  100.4822  -48.0378 C   0  0  0  0  0  0  0  0  0  0  0  0
  1  2  1  0
  1  9  1  0
  1 15  1  0
  2  3  2  0
  2  7  1  0
  3  4  1  0
  3 10  1  0
  4  5  2  0
  5  6  1  0
  5  8  1  0
  6  7  2  0
  8 23  1  0
  9 10  2  0
  9 14  1  0
 10 11  1  0
 11 12  2  0
 12 13  1  0
 13 14  2  0
 13 16  1  0
 15 22  1  0
 16 17  2  0
 16 20  1  0
 17 18  1  0
 18 19  2  0
 19 20  1  0
 19 21  1  0
 23 24  1  0
M  CHG  1  23   1
M  END
$$$$
