
     RDKit          3D

 24 27  0  0  0  0  0  0  0  0999 V2000
   91.6642   93.7220  -42.7383 N   0  0  0  0  0  0  0  0  0  0  0  0
   91.5203   94.9918  -42.2894 C   0  0  0  0  0  0  0  0  0  0  0  0
   91.0588   95.8091  -43.2994 C   0  0  0  0  0  0  0  0  0  0  0  0
   90.8367   97.1502  -43.0718 C   0  0  0  0  0  0  0  0  0  0  0  0
   91.0612   97.7376  -41.8388 C   0  0  0  0  0  0  0  0  0  0  0  0
   91.5231   96.9235  -40.8250 C   0  0  0  0  0  0  0  0  0  0  0  0
   91.7445   95.5812  -41.0559 C   0  0  0  0  0  0  0  0  0  0  0  0
   90.8128   99.1879  -41.6218 C   0  0  0  0  0  0  0  0  0  0  0  0
   91.3048   93.6997  -44.0210 C   0  0  0  0  0  0  0  0  0  0  0  0
   90.9237   94.9679  -44.4081 C   0  0  0  0  0  0  0  0  0  0  0  0
   90.5002   95.2563  -45.6828 C   0  0  0  0  0  0  0  0  0  0  0  0
   90.4510   94.2430  -46.6190 C   0  0  0  0  0  0  0  0  0  0  0  0
   90.8270   92.9776  -46.2473 C   0  0  0  0  0  0  0  0  0  0  0  0
   91.2517   92.6893  -44.9685 C   0  0  0  0  0  0  0  0  0  0  0  0
   92.1279   92.5682  -41.9739 C   0  0  0  0  0  0  0  0  0  0  0  0
   90.7951   91.8497  -47.2086 C   0  0  0  0  0  0  0  0  0  0  0  0
   90.2672   91.8450  -48.4749 C   0  0  0  0  0  0  0  0  0  0  0  0
   90.3521   90.7043  -49.1670 C   0  0  0  0  0  0  0  0  0  0  0  0
   90.9558   89.6381  -48.5597 C   0  0  0  0  0  0  0  0  0  0  0  0
   91.3890   90.2614  -47.0344 S   0  0  0  0  0  0  0  0  0  0  0  0
   91.1694   88.2562  -49.1330 C   0  0  0  0  0  0  0  0  0  0  0  0
   93.6376   92.5622  -41.9391 C   0  0  0  0  0  0  0  0  0  0  0  0
   91.9943   99.9796  -41.9031 N   0  0  0  0  0  4  0  0  0  0  0  0
   91.7741  101.3857  -41.7246 C   0  0  0  0  0  0  0  0  0  0  0  0
  1  2  1  0
  1  9  1  0
  1 15  1  0
  2  3  2  0
  2  7  1  0
  3  4  1  0
  3 10  1  0
  4  5  2  0
  5  6  1  0
  5  8  1  0
  6  7  2  0
  8 23  1  0
  9 10  2  0
  9 14  1  0
 10 11  1  0
 11 12  2  0
 12 13  1  0
 13 14  2  0
 13 16  1  0
 15 22  1  0
 16 17  2  0
 16 20  1  0
 17 18  1  0
 18 19  2  0
 19 20  1  0
 19 21  1  0
 23 24  1  0
M  CHG  1  23   1
M  END
$$$$
