
     RDKit          3D

 24 27  0  0  0  0  0  0  0  0999 V2000
   91.9114   93.8300  -42.7558 N   0  0  0  0  0  0  0  0  0  0  0  0
   91.7976   95.1108  -42.3301 C   0  0  0  0  0  0  0  0  0  0  0  0
   91.3242   95.9144  -43.3457 C   0  0  0  0  0  0  0  0  0  0  0  0
   91.1281   97.2632  -43.1409 C   0  0  0  0  0  0  0  0  0  0  0  0
   91.3914   97.8722  -41.9262 C   0  0  0  0  0  0  0  0  0  0  0  0
   91.8653   97.0719  -40.9070 C   0  0  0  0  0  0  0  0  0  0  0  0
   92.0606   95.7219  -41.1150 C   0  0  0  0  0  0  0  0  0  0  0  0
   91.1703   99.3304  -41.7337 C   0  0  0  0  0  0  0  0  0  0  0  0
   91.5206   93.7870  -44.0287 C   0  0  0  0  0  0  0  0  0  0  0  0
   91.1496   95.0528  -44.4331 C   0  0  0  0  0  0  0  0  0  0  0  0
   90.6996   95.3216  -45.7030 C   0  0  0  0  0  0  0  0  0  0  0  0
   90.6123   94.2901  -46.6163 C   0  0  0  0  0  0  0  0  0  0  0  0
   90.9780   93.0269  -46.2273 C   0  0  0  0  0  0  0  0  0  0  0  0
   91.4292   92.7583  -44.9533 C   0  0  0  0  0  0  0  0  0  0  0  0
   92.3759   92.6851  -41.9787 C   0  0  0  0  0  0  0  0  0  0  0  0
   90.9057   91.8801  -47.1638 C   0  0  0  0  0  0  0  0  0  0  0  0
   90.3337   91.8535  -48.4105 C   0  0  0  0  0  0  0  0  0  0  0  0
   90.3874   90.6985  -49.0818 C   0  0  0  0  0  0  0  0  0  0  0  0
   91.0056   89.6407  -48.4744 C   0  0  0  0  0  0  0  0  0  0  0  0
   91.4958   90.2917  -46.9782 S   0  0  0  0  0  0  0  0  0  0  0  0
   91.1907   88.2462  -49.0266 C   0  0  0  0  0  0  0  0  0  0  0  0
   93.7718   92.9558  -41.4701 C   0  0  0  0  0  0  0  0  0  0  0  0
   92.4055  100.0788  -41.8611 N   0  0  0  0  0  4  0  0  0  0  0  0
   92.2226  101.4872  -41.6613 C   0  0  0  0  0  0  0  0  0  0  0  0
  1  2  1  0
  1  9  1  0
  1 15  1  0
  2  3  2  0
  2  7  1  0
  3  4  1  0
  3 10  1  0
  4  5  2  0
  5  6  1  0
  5  8  1  0
  6  7  2  0
  8 23  1  0
  9 10  2  0
  9 14  1  0
 10 11  1  0
 11 12  2  0
 12 13  1  0
 13 14  2  0
 13 16  1  0
 15 22  1  0
 16 17  2  0
 16 20  1  0
 17 18  1  0
 18 19  2  0
 19 20  1  0
 19 21  1  0
 23 24  1  0
M  CHG  1  23   1
M  END
$$$$
