
     RDKit          3D

 24 27  0  0  0  0  0  0  0  0999 V2000
   92.0532   94.0149  -42.7551 N   0  0  0  0  0  0  0  0  0  0  0  0
   91.9252   95.3151  -42.3978 C   0  0  0  0  0  0  0  0  0  0  0  0
   91.4077   96.0517  -43.4422 C   0  0  0  0  0  0  0  0  0  0  0  0
   91.1899   97.4059  -43.3069 C   0  0  0  0  0  0  0  0  0  0  0  0
   91.4741   98.0866  -42.1357 C   0  0  0  0  0  0  0  0  0  0  0  0
   91.9921   97.3536  -41.0878 C   0  0  0  0  0  0  0  0  0  0  0  0
   92.2091   95.9979  -41.2263 C   0  0  0  0  0  0  0  0  0  0  0  0
   91.2287   99.5489  -42.0179 C   0  0  0  0  0  0  0  0  0  0  0  0
   91.6285   93.8936  -44.0120 C   0  0  0  0  0  0  0  0  0  0  0  0
   91.2208   95.1276  -44.4749 C   0  0  0  0  0  0  0  0  0  0  0  0
   90.7307   95.3165  -45.7443 C   0  0  0  0  0  0  0  0  0  0  0  0
   90.6393   94.2342  -46.5963 C   0  0  0  0  0  0  0  0  0  0  0  0
   91.0412   93.0018  -46.1488 C   0  0  0  0  0  0  0  0  0  0  0  0
   91.5327   92.8133  -44.8753 C   0  0  0  0  0  0  0  0  0  0  0  0
   92.5622   92.9241  -41.9295 C   0  0  0  0  0  0  0  0  0  0  0  0
   90.9665   91.8033  -47.0179 C   0  0  0  0  0  0  0  0  0  0  0  0
   91.3818   90.5295  -46.7230 C   0  0  0  0  0  0  0  0  0  0  0  0
   91.2141   89.5990  -47.6683 C   0  0  0  0  0  0  0  0  0  0  0  0
   90.6443   89.9900  -48.8484 C   0  0  0  0  0  0  0  0  0  0  0  0
   90.3583   91.6516  -48.6031 S   0  0  0  0  0  0  0  0  0  0  0  0
   90.3538   89.1293  -50.0561 C   0  0  0  0  0  0  0  0  0  0  0  0
   91.4161   92.2768  -41.1894 C   0  0  0  0  0  0  0  0  0  0  0  0
   89.9659   99.8270  -41.3623 N   0  0  0  0  0  4  0  0  0  0  0  0
   89.7456  101.2293  -41.1571 C   0  0  0  0  0  0  0  0  0  0  0  0
  1  2  1  0
  1  9  1  0
  1 15  1  0
  2  3  2  0
  2  7  1  0
  3  4  1  0
  3 10  1  0
  4  5  2  0
  5  6  1  0
  5  8  1  0
  6  7  2  0
  8 23  1  0
  9 10  2  0
  9 14  1  0
 10 11  1  0
 11 12  2  0
 12 13  1  0
 13 14  2  0
 13 16  1  0
 15 22  1  0
 16 17  2  0
 16 20  1  0
 17 18  1  0
 18 19  2  0
 19 20  1  0
 19 21  1  0
 23 24  1  0
M  CHG  1  23   1
M  END
$$$$
