
     RDKit          3D

 24 27  0  0  0  0  0  0  0  0999 V2000
   91.6561   93.7950  -42.8038 N   0  0  0  0  0  0  0  0  0  0  0  0
   91.6026   95.0925  -42.4189 C   0  0  0  0  0  0  0  0  0  0  0  0
   91.2699   95.8975  -43.4877 C   0  0  0  0  0  0  0  0  0  0  0  0
   91.1568   97.2622  -43.3311 C   0  0  0  0  0  0  0  0  0  0  0  0
   91.3675   97.8862  -42.1137 C   0  0  0  0  0  0  0  0  0  0  0  0
   91.7008   97.0846  -41.0412 C   0  0  0  0  0  0  0  0  0  0  0  0
   91.8132   95.7187  -41.2012 C   0  0  0  0  0  0  0  0  0  0  0  0
   91.2385   99.3614  -41.9739 C   0  0  0  0  0  0  0  0  0  0  0  0
   91.3642   93.7426  -44.1027 C   0  0  0  0  0  0  0  0  0  0  0  0
   91.1189   95.0191  -44.5651 C   0  0  0  0  0  0  0  0  0  0  0  0
   90.7906   95.2818  -45.8730 C   0  0  0  0  0  0  0  0  0  0  0  0
   90.7005   94.2328  -46.7659 C   0  0  0  0  0  0  0  0  0  0  0  0
   90.9419   92.9589  -46.3193 C   0  0  0  0  0  0  0  0  0  0  0  0
   91.2712   92.6964  -45.0072 C   0  0  0  0  0  0  0  0  0  0  0  0
   91.9739   92.6433  -41.9654 C   0  0  0  0  0  0  0  0  0  0  0  0
   90.8602   91.7932  -47.2314 C   0  0  0  0  0  0  0  0  0  0  0  0
   90.3879   91.7709  -48.5193 C   0  0  0  0  0  0  0  0  0  0  0  0
   90.4099   90.5959  -49.1569 C   0  0  0  0  0  0  0  0  0  0  0  0
   90.8994   89.5151  -48.4768 C   0  0  0  0  0  0  0  0  0  0  0  0
   91.3162   90.1731  -46.9616 S   0  0  0  0  0  0  0  0  0  0  0  0
   91.0252   88.0955  -48.9795 C   0  0  0  0  0  0  0  0  0  0  0  0
   93.4705   92.4447  -41.9304 C   0  0  0  0  0  0  0  0  0  0  0  0
   89.9406   99.7360  -41.4476 N   0  0  0  0  0  4  0  0  0  0  0  0
   89.8127  101.1501  -41.2443 C   0  0  0  0  0  0  0  0  0  0  0  0
  1  2  1  0
  1  9  1  0
  1 15  1  0
  2  3  2  0
  2  7  1  0
  3  4  1  0
  3 10  1  0
  4  5  2  0
  5  6  1  0
  5  8  1  0
  6  7  2  0
  8 23  1  0
  9 10  2  0
  9 14  1  0
 10 11  1  0
 11 12  2  0
 12 13  1  0
 13 14  2  0
 13 16  1  0
 15 22  1  0
 16 17  2  0
 16 20  1  0
 17 18  1  0
 18 19  2  0
 19 20  1  0
 19 21  1  0
 23 24  1  0
M  CHG  1  23   1
M  END
$$$$
