
     RDKit          3D

 24 27  0  0  0  0  0  0  0  0999 V2000
   91.4100   96.3946  -42.7801 N   0  0  0  0  0  0  0  0  0  0  0  0
   90.8853   97.0890  -43.8180 C   0  0  0  0  0  0  0  0  0  0  0  0
   90.5117   96.2307  -44.8304 C   0  0  0  0  0  0  0  0  0  0  0  0
   89.9507   96.7163  -45.9920 C   0  0  0  0  0  0  0  0  0  0  0  0
   89.7364   98.0678  -46.2003 C   0  0  0  0  0  0  0  0  0  0  0  0
   90.1089   98.9304  -45.1899 C   0  0  0  0  0  0  0  0  0  0  0  0
   90.6702   98.4413  -44.0281 C   0  0  0  0  0  0  0  0  0  0  0  0
   89.1290   98.5636  -47.4642 C   0  0  0  0  0  0  0  0  0  0  0  0
   91.3839   95.1015  -43.0998 C   0  0  0  0  0  0  0  0  0  0  0  0
   90.8367   94.9555  -44.3579 C   0  0  0  0  0  0  0  0  0  0  0  0
   90.6795   93.7299  -44.9585 C   0  0  0  0  0  0  0  0  0  0  0  0
   91.0822   92.5951  -44.2834 C   0  0  0  0  0  0  0  0  0  0  0  0
   91.6276   92.7262  -43.0320 C   0  0  0  0  0  0  0  0  0  0  0  0
   91.7850   93.9559  -42.4304 C   0  0  0  0  0  0  0  0  0  0  0  0
   91.9191   96.9416  -41.5264 C   0  0  0  0  0  0  0  0  0  0  0  0
   92.0781   91.5442  -42.2591 C   0  0  0  0  0  0  0  0  0  0  0  0
   92.6088   91.5250  -40.9942 C   0  0  0  0  0  0  0  0  0  0  0  0
   92.9470   90.3327  -40.4925 C   0  0  0  0  0  0  0  0  0  0  0  0
   92.7376   89.2326  -41.2773 C   0  0  0  0  0  0  0  0  0  0  0  0
   92.0722   89.8970  -42.6980 S   0  0  0  0  0  0  0  0  0  0  0  0
   93.0362   87.7913  -40.9346 C   0  0  0  0  0  0  0  0  0  0  0  0
   90.7690   97.1754  -40.5761 C   0  0  0  0  0  0  0  0  0  0  0  0
   87.7347   98.9173  -47.2833 N   0  0  0  0  0  4  0  0  0  0  0  0
   87.1371   99.4418  -48.4770 C   0  0  0  0  0  0  0  0  0  0  0  0
  1  2  1  0
  1  9  1  0
  1 15  1  0
  2  3  2  0
  2  7  1  0
  3  4  1  0
  3 10  1  0
  4  5  2  0
  5  6  1  0
  5  8  1  0
  6  7  2  0
  8 23  1  0
  9 10  2  0
  9 14  1  0
 10 11  1  0
 11 12  2  0
 12 13  1  0
 13 14  2  0
 13 16  1  0
 15 22  1  0
 16 17  2  0
 16 20  1  0
 17 18  1  0
 18 19  2  0
 19 20  1  0
 19 21  1  0
 23 24  1  0
M  CHG  1  23   1
M  END
$$$$
