
     RDKit          3D

 24 27  0  0  0  0  0  0  0  0999 V2000
   91.8303   93.7095  -42.6604 N   0  0  0  0  0  0  0  0  0  0  0  0
   91.7188   94.9990  -42.2610 C   0  0  0  0  0  0  0  0  0  0  0  0
   91.3129   95.7941  -43.3118 C   0  0  0  0  0  0  0  0  0  0  0  0
   91.1317   97.1494  -43.1383 C   0  0  0  0  0  0  0  0  0  0  0  0
   91.3438   97.7733  -41.9211 C   0  0  0  0  0  0  0  0  0  0  0  0
   91.7501   96.9816  -40.8667 C   0  0  0  0  0  0  0  0  0  0  0  0
   91.9306   95.6250  -41.0435 C   0  0  0  0  0  0  0  0  0  0  0  0
   91.1404   99.2382  -41.7628 C   0  0  0  0  0  0  0  0  0  0  0  0
   91.5044   93.6527  -43.9509 C   0  0  0  0  0  0  0  0  0  0  0  0
   91.1782   94.9181  -44.3933 C   0  0  0  0  0  0  0  0  0  0  0  0
   90.7988   95.1740  -45.6887 C   0  0  0  0  0  0  0  0  0  0  0  0
   90.7392   94.1294  -46.5893 C   0  0  0  0  0  0  0  0  0  0  0  0
   91.0610   92.8664  -46.1625 C   0  0  0  0  0  0  0  0  0  0  0  0
   91.4414   92.6107  -44.8630 C   0  0  0  0  0  0  0  0  0  0  0  0
   92.2331   92.5694  -41.8429 C   0  0  0  0  0  0  0  0  0  0  0  0
   91.0153   91.7059  -47.0837 C   0  0  0  0  0  0  0  0  0  0  0  0
   91.0519   91.7250  -48.4550 C   0  0  0  0  0  0  0  0  0  0  0  0
   90.9976   90.5461  -49.0832 C   0  0  0  0  0  0  0  0  0  0  0  0
   90.9102   89.4204  -48.3116 C   0  0  0  0  0  0  0  0  0  0  0  0
   90.9065   90.0429  -46.7257 S   0  0  0  0  0  0  0  0  0  0  0  0
   90.8367   87.9872  -48.7854 C   0  0  0  0  0  0  0  0  0  0  0  0
   93.7404   92.5054  -41.7774 C   0  0  0  0  0  0  0  0  0  0  0  0
   92.3407   99.9822  -42.0909 N   0  0  0  0  0  4  0  0  0  0  0  0
   92.1813  101.3965  -41.9135 C   0  0  0  0  0  0  0  0  0  0  0  0
  1  2  1  0
  1  9  1  0
  1 15  1  0
  2  3  2  0
  2  7  1  0
  3  4  1  0
  3 10  1  0
  4  5  2  0
  5  6  1  0
  5  8  1  0
  6  7  2  0
  8 23  1  0
  9 10  2  0
  9 14  1  0
 10 11  1  0
 11 12  2  0
 12 13  1  0
 13 14  2  0
 13 16  1  0
 15 22  1  0
 16 17  2  0
 16 20  1  0
 17 18  1  0
 18 19  2  0
 19 20  1  0
 19 21  1  0
 23 24  1  0
M  CHG  1  23   1
M  END
$$$$
