
     RDKit          3D

 29 32  0  0  0  0  0  0  0  0999 V2000
    4.4066   25.0490   24.6143 C   0  0  0  0  0  0  0  0  0  0  0  0
    4.4242   25.4004   23.2170 C   0  0  0  0  0  0  0  0  0  0  0  0
    5.3560   24.7461   22.4012 C   0  0  0  0  0  0  0  0  0  0  0  0
    4.6122   25.9371   20.5152 C   0  0  0  0  0  0  0  0  0  0  0  0
    5.3701   26.2183   17.0161 C   0  0  0  0  0  0  0  0  0  0  0  0
    4.2925   27.0664   17.0935 C   0  0  0  0  0  0  0  0  0  0  0  0
    3.9037   27.0427   18.4156 C   0  0  0  0  0  0  0  0  0  0  0  0
    3.6042   26.3170   22.6419 C   0  0  0  0  0  0  0  0  0  0  0  0
    5.3864   23.8970   26.6353 C   0  0  0  0  0  0  0  0  0  0  0  0
    5.6650   22.5051   27.0437 C   0  0  0  0  0  0  0  0  0  0  0  0
    6.4301   21.6627   26.2181 C   0  0  0  0  0  0  0  0  0  0  0  0
    6.6721   20.3599   26.5869 C   0  0  0  0  0  0  0  0  0  0  0  0
    5.1940   21.9469   28.2053 C   0  0  0  0  0  0  0  0  0  0  0  0
    5.4424   20.6188   28.5790 C   0  0  0  0  0  0  0  0  0  0  0  0
    6.1946   19.8126   27.7546 C   0  0  0  0  0  0  0  0  0  0  0  0
    7.7706   18.0632   28.2222 C   0  0  0  0  0  0  0  0  0  0  0  0
    8.8470   18.9407   28.3153 C   0  0  0  0  0  0  0  0  0  0  0  0
   10.1343   18.4822   28.4407 C   0  0  0  0  0  0  0  0  0  0  0  0
   10.4073   17.1412   28.4789 C   0  0  0  0  0  0  0  0  0  0  0  0
    9.3700   16.2428   28.3896 C   0  0  0  0  0  0  0  0  0  0  0  0
    8.0713   16.7183   28.2630 C   0  0  0  0  0  0  0  0  0  0  0  0
    5.4201   25.0327   21.0870 N   0  0  0  0  0  0  0  0  0  0  0  0
    4.7095   26.2169   19.1097 N   0  0  0  0  0  0  0  0  0  0  0  0
    5.5823   25.7331   18.2496 N   0  0  0  0  0  0  0  0  0  0  0  0
    3.7259   26.5573   21.2991 N   0  0  0  0  0  0  0  0  0  0  0  0
    5.0313   23.9384   25.2140 N   0  0  0  0  0  0  0  0  0  0  0  0
    3.7668   25.7954   25.4448 O   0  0  0  0  0  0  0  0  0  0  0  0
    2.7491   26.9379   23.3133 O   0  0  0  0  0  0  0  0  0  0  0  0
    6.4585   18.4951   28.0946 O   0  0  0  0  0  0  0  0  0  0  0  0
  1  2  1  0
 26  1  1  0
  1 27  2  0
  2  3  2  0
  2  8  1  0
  3 22  1  0
 22  4  2  0
  4 23  1  0
 25  4  1  0
  6  5  1  0
  5 24  2  0
  7  6  2  0
 23  7  1  0
  8 25  1  0
  8 28  2  0
 10  9  1  0
  9 26  1  0
 11 10  2  0
 13 10  1  0
 12 11  1  0
 15 12  2  0
 14 13  2  0
 15 14  1  0
 29 15  1  0
 16 17  2  0
 16 21  1  0
 16 29  1  0
 17 18  1  0
 18 19  2  0
 19 20  1  0
 20 21  2  0
 23 24  1  0
M  END
$$$$
