
     RDKit          3D

 29 32  0  0  0  0  0  0  0  0999 V2000
    5.9898   22.6586   24.2888 C   0  0  0  0  0  0  0  0  0  0  0  0
    5.4209   23.6683   23.4325 C   0  0  0  0  0  0  0  0  0  0  0  0
    5.6711   23.5616   22.0585 C   0  0  0  0  0  0  0  0  0  0  0  0
    4.4184   25.5050   21.6313 C   0  0  0  0  0  0  0  0  0  0  0  0
    3.5214   27.6015   18.8568 C   0  0  0  0  0  0  0  0  0  0  0  0
    2.7139   28.1383   19.8296 C   0  0  0  0  0  0  0  0  0  0  0  0
    2.9729   27.4025   20.9658 C   0  0  0  0  0  0  0  0  0  0  0  0
    4.6641   24.7093   23.8651 C   0  0  0  0  0  0  0  0  0  0  0  0
    6.3659   21.4409   26.4676 C   0  0  0  0  0  0  0  0  0  0  0  0
    6.7279   21.8635   27.8359 C   0  0  0  0  0  0  0  0  0  0  0  0
    7.8406   21.2976   28.4826 C   0  0  0  0  0  0  0  0  0  0  0  0
    8.1661   21.6743   29.7648 C   0  0  0  0  0  0  0  0  0  0  0  0
    6.0156   22.7880   28.5574 C   0  0  0  0  0  0  0  0  0  0  0  0
    6.3497   23.1705   29.8640 C   0  0  0  0  0  0  0  0  0  0  0  0
    7.4441   22.6030   30.4771 C   0  0  0  0  0  0  0  0  0  0  0  0
    8.6385   22.1350   32.5061 C   0  0  0  0  0  0  0  0  0  0  0  0
    8.3888   20.7783   32.6908 C   0  0  0  0  0  0  0  0  0  0  0  0
    9.2364   19.9891   33.4270 C   0  0  0  0  0  0  0  0  0  0  0  0
   10.3617   20.5092   34.0080 C   0  0  0  0  0  0  0  0  0  0  0  0
   10.6424   21.8459   33.8481 C   0  0  0  0  0  0  0  0  0  0  0  0
    9.7774   22.6348   33.1010 C   0  0  0  0  0  0  0  0  0  0  0  0
    5.1661   24.4758   21.2083 N   0  0  0  0  0  0  0  0  0  0  0  0
    3.8965   26.4611   20.6948 N   0  0  0  0  0  0  0  0  0  0  0  0
    4.2114   26.5989   19.4230 N   0  0  0  0  0  0  0  0  0  0  0  0
    4.1837   25.6007   22.9430 N   0  0  0  0  0  0  0  0  0  0  0  0
    5.9067   22.5974   25.6933 N   0  0  0  0  0  0  0  0  0  0  0  0
    6.6536   21.6883   23.7656 O   0  0  0  0  0  0  0  0  0  0  0  0
    4.4024   24.8638   25.0796 O   0  0  0  0  0  0  0  0  0  0  0  0
    7.8014   22.9590   31.7680 O   0  0  0  0  0  0  0  0  0  0  0  0
  1  2  1  0
 26  1  1  0
  1 27  2  0
  2  3  2  0
  2  8  1  0
  3 22  1  0
 22  4  2  0
  4 23  1  0
 25  4  1  0
  6  5  1  0
  5 24  2  0
  7  6  2  0
 23  7  1  0
  8 25  1  0
  8 28  2  0
 10  9  1  0
  9 26  1  0
 11 10  2  0
 13 10  1  0
 12 11  1  0
 15 12  2  0
 14 13  2  0
 15 14  1  0
 29 15  1  0
 16 17  2  0
 16 21  1  0
 16 29  1  0
 17 18  1  0
 18 19  2  0
 19 20  1  0
 20 21  2  0
 23 24  1  0
M  END
$$$$
