
     RDKit          3D

 29 32  0  0  0  0  0  0  0  0999 V2000
    5.3169   23.6152   25.9657 C   0  0  0  0  0  0  0  0  0  0  0  0
    6.2249   23.7266   27.0740 C   0  0  0  0  0  0  0  0  0  0  0  0
    7.2570   22.7932   27.2277 C   0  0  0  0  0  0  0  0  0  0  0  0
    8.0134   23.8676   29.1752 C   0  0  0  0  0  0  0  0  0  0  0  0
    9.9600   24.4392   32.1180 C   0  0  0  0  0  0  0  0  0  0  0  0
   10.7297   23.4812   31.4867 C   0  0  0  0  0  0  0  0  0  0  0  0
   10.0733   23.1802   30.3302 C   0  0  0  0  0  0  0  0  0  0  0  0
    6.1596   24.7032   28.0216 C   0  0  0  0  0  0  0  0  0  0  0  0
    4.7015   23.4597   23.5032 C   0  0  0  0  0  0  0  0  0  0  0  0
    5.2120   22.2683   22.7987 C   0  0  0  0  0  0  0  0  0  0  0  0
    5.0001   21.0403   23.3934 C   0  0  0  0  0  0  0  0  0  0  0  0
    5.4415   19.8902   22.7823 C   0  0  0  0  0  0  0  0  0  0  0  0
    5.8529   22.3723   21.6105 C   0  0  0  0  0  0  0  0  0  0  0  0
    6.3037   21.2175   20.9833 C   0  0  0  0  0  0  0  0  0  0  0  0
    6.0948   19.9849   21.5736 C   0  0  0  0  0  0  0  0  0  0  0  0
    7.1640   19.0094   19.6831 C   0  0  0  0  0  0  0  0  0  0  0  0
    6.4547   19.6290   18.6770 C   0  0  0  0  0  0  0  0  0  0  0  0
    7.0595   19.7655   17.4463 C   0  0  0  0  0  0  0  0  0  0  0  0
    8.3327   19.3045   17.2063 C   0  0  0  0  0  0  0  0  0  0  0  0
    9.0206   18.6880   18.2312 C   0  0  0  0  0  0  0  0  0  0  0  0
    8.4325   18.5390   19.4788 C   0  0  0  0  0  0  0  0  0  0  0  0
    8.1026   22.9018   28.2650 N   0  0  0  0  0  0  0  0  0  0  0  0
    8.9410   23.9165   30.2388 N   0  0  0  0  0  0  0  0  0  0  0  0
    8.9071   24.6672   31.3408 N   0  0  0  0  0  0  0  0  0  0  0  0
    7.0446   24.7721   29.0605 N   0  0  0  0  0  0  0  0  0  0  0  0
    5.5339   23.8901   24.6098 N   0  0  0  0  0  0  0  0  0  0  0  0
    4.1294   23.2048   26.2448 O   0  0  0  0  0  0  0  0  0  0  0  0
    5.2786   25.5981   27.9927 O   0  0  0  0  0  0  0  0  0  0  0  0
    6.5576   18.8725   20.9173 O   0  0  0  0  0  0  0  0  0  0  0  0
  1  2  1  0
 26  1  1  0
  1 27  2  0
  2  3  2  0
  2  8  1  0
  3 22  1  0
 22  4  2  0
  4 23  1  0
 25  4  1  0
  6  5  1  0
  5 24  2  0
  7  6  2  0
 23  7  1  0
  8 25  1  0
  8 28  2  0
 10  9  1  0
  9 26  1  6
 11 10  2  0
 13 10  1  0
 12 11  1  0
 15 12  2  0
 14 13  2  0
 15 14  1  0
 29 15  1  0
 16 17  2  0
 16 21  1  0
 16 29  1  0
 17 18  1  0
 18 19  2  0
 19 20  1  0
 20 21  2  0
 23 24  1  0
M  END
$$$$
