
     RDKit          3D

 29 32  0  0  0  0  0  0  0  0999 V2000
    4.5124   25.0925   24.4340 C   0  0  0  0  0  0  0  0  0  0  0  0
    5.1498   24.8175   25.6923 C   0  0  0  0  0  0  0  0  0  0  0  0
    4.3762   24.4649   26.8046 C   0  0  0  0  0  0  0  0  0  0  0  0
    6.2945   24.2731   28.1472 C   0  0  0  0  0  0  0  0  0  0  0  0
    7.1475   23.7878   31.5842 C   0  0  0  0  0  0  0  0  0  0  0  0
    8.2923   23.3181   30.9699 C   0  0  0  0  0  0  0  0  0  0  0  0
    8.0785   23.4563   29.6304 C   0  0  0  0  0  0  0  0  0  0  0  0
    6.4954   24.8747   25.8970 C   0  0  0  0  0  0  0  0  0  0  0  0
    4.5704   25.4145   21.9121 C   0  0  0  0  0  0  0  0  0  0  0  0
    5.1233   24.2130   21.2586 C   0  0  0  0  0  0  0  0  0  0  0  0
    5.5982   24.3536   19.9696 C   0  0  0  0  0  0  0  0  0  0  0  0
    6.1364   23.2743   19.3089 C   0  0  0  0  0  0  0  0  0  0  0  0
    5.1745   23.0218   21.9002 C   0  0  0  0  0  0  0  0  0  0  0  0
    5.7159   21.9238   21.2431 C   0  0  0  0  0  0  0  0  0  0  0  0
    6.1928   22.0580   19.9524 C   0  0  0  0  0  0  0  0  0  0  0  0
    6.9578   20.9606   17.9828 C   0  0  0  0  0  0  0  0  0  0  0  0
    5.9092   21.2677   17.1429 C   0  0  0  0  0  0  0  0  0  0  0  0
    6.1479   21.2819   15.7858 C   0  0  0  0  0  0  0  0  0  0  0  0
    7.3882   21.0010   15.2624 C   0  0  0  0  0  0  0  0  0  0  0  0
    8.4206   20.6966   16.1257 C   0  0  0  0  0  0  0  0  0  0  0  0
    8.2044   20.6761   17.4958 C   0  0  0  0  0  0  0  0  0  0  0  0
    4.9767   24.2090   27.9779 N   0  0  0  0  0  0  0  0  0  0  0  0
    6.8534   23.9893   29.4126 N   0  0  0  0  0  0  0  0  0  0  0  0
    6.3197   24.1763   30.6206 N   0  0  0  0  0  0  0  0  0  0  0  0
    7.0607   24.6052   27.1116 N   0  0  0  0  0  0  0  0  0  0  0  0
    5.0587   25.6275   23.2608 N   0  0  0  0  0  0  0  0  0  0  0  0
    3.2585   24.8114   24.3603 O   0  0  0  0  0  0  0  0  0  0  0  0
    7.2943   25.1795   24.9770 O   0  0  0  0  0  0  0  0  0  0  0  0
    6.7185   20.9464   19.3438 O   0  0  0  0  0  0  0  0  0  0  0  0
  1  2  1  0
 26  1  1  0
  1 27  2  0
  2  3  2  0
  2  8  1  0
  3 22  1  0
 22  4  2  0
  4 23  1  0
 25  4  1  0
  6  5  1  0
  5 24  2  0
  7  6  2  0
 23  7  1  0
  8 25  1  0
  8 28  2  0
 10  9  1  0
  9 26  1  6
 11 10  2  0
 13 10  1  0
 12 11  1  0
 15 12  2  0
 14 13  2  0
 15 14  1  0
 29 15  1  0
 16 17  2  0
 16 21  1  0
 16 29  1  0
 17 18  1  0
 18 19  2  0
 19 20  1  0
 20 21  2  0
 23 24  1  0
M  END
$$$$
