
     RDKit          3D

 29 32  0  0  0  0  0  0  0  0999 V2000
    3.7895   25.1752   23.7632 C   0  0  0  0  0  0  0  0  0  0  0  0
    4.1934   24.7480   25.0746 C   0  0  0  0  0  0  0  0  0  0  0  0
    4.1018   23.3964   25.4278 C   0  0  0  0  0  0  0  0  0  0  0  0
    4.9483   23.8427   27.5734 C   0  0  0  0  0  0  0  0  0  0  0  0
    5.4646   22.1394   30.6731 C   0  0  0  0  0  0  0  0  0  0  0  0
    6.3735   23.1724   30.7967 C   0  0  0  0  0  0  0  0  0  0  0  0
    6.2639   23.9028   29.6507 C   0  0  0  0  0  0  0  0  0  0  0  0
    4.6759   25.5832   26.0366 C   0  0  0  0  0  0  0  0  0  0  0  0
    3.3228   24.8119   21.2899 C   0  0  0  0  0  0  0  0  0  0  0  0
    4.4304   24.2435   20.4983 C   0  0  0  0  0  0  0  0  0  0  0  0
    5.1979   23.2624   21.0943 C   0  0  0  0  0  0  0  0  0  0  0  0
    6.2384   22.6843   20.4057 C   0  0  0  0  0  0  0  0  0  0  0  0
    4.6785   24.6581   19.2335 C   0  0  0  0  0  0  0  0  0  0  0  0
    5.7271   24.0817   18.5276 C   0  0  0  0  0  0  0  0  0  0  0  0
    6.4993   23.0991   19.1187 C   0  0  0  0  0  0  0  0  0  0  0  0
    7.9344   23.1835   17.2207 C   0  0  0  0  0  0  0  0  0  0  0  0
    7.5918   22.6051   16.0176 C   0  0  0  0  0  0  0  0  0  0  0  0
    8.0012   23.2280   14.8585 C   0  0  0  0  0  0  0  0  0  0  0  0
    8.7311   24.3933   14.8777 C   0  0  0  0  0  0  0  0  0  0  0  0
    9.0606   24.9513   16.0960 C   0  0  0  0  0  0  0  0  0  0  0  0
    8.6597   24.3424   17.2762 C   0  0  0  0  0  0  0  0  0  0  0  0
    4.4805   23.0026   26.6542 N   0  0  0  0  0  0  0  0  0  0  0  0
    5.3274   23.3531   28.8425 N   0  0  0  0  0  0  0  0  0  0  0  0
    4.8655   22.2863   29.4965 N   0  0  0  0  0  0  0  0  0  0  0  0
    5.0490   25.1345   27.2722 N   0  0  0  0  0  0  0  0  0  0  0  0
    3.3300   24.4109   22.6835 N   0  0  0  0  0  0  0  0  0  0  0  0
    3.8542   26.4401   23.5340 O   0  0  0  0  0  0  0  0  0  0  0  0
    4.8050   26.8172   25.8404 O   0  0  0  0  0  0  0  0  0  0  0  0
    7.5238   22.5589   18.3830 O   0  0  0  0  0  0  0  0  0  0  0  0
  1  2  1  0
 26  1  1  0
  1 27  2  0
  2  3  2  0
  2  8  1  0
  3 22  1  0
 22  4  2  0
  4 23  1  0
 25  4  1  0
  6  5  1  0
  5 24  2  0
  7  6  2  0
 23  7  1  0
  8 25  1  0
  8 28  2  0
 10  9  1  0
  9 26  1  6
 11 10  2  0
 13 10  1  0
 12 11  1  0
 15 12  2  0
 14 13  2  0
 15 14  1  0
 29 15  1  0
 16 17  2  0
 16 21  1  0
 16 29  1  0
 17 18  1  0
 18 19  2  0
 19 20  1  0
 20 21  2  0
 23 24  1  0
M  END
$$$$
