
     RDKit          3D

 29 32  0  0  0  0  0  0  0  0999 V2000
    5.7589   22.4070   26.3454 C   0  0  0  0  0  0  0  0  0  0  0  0
    4.9927   21.9956   27.4943 C   0  0  0  0  0  0  0  0  0  0  0  0
    4.2292   22.9751   28.1422 C   0  0  0  0  0  0  0  0  0  0  0  0
    3.4589   21.4035   29.7124 C   0  0  0  0  0  0  0  0  0  0  0  0
    1.4882   21.2843   32.7123 C   0  0  0  0  0  0  0  0  0  0  0  0
    1.5006   19.9506   32.3844 C   0  0  0  0  0  0  0  0  0  0  0  0
    2.2421   19.8666   31.2257 C   0  0  0  0  0  0  0  0  0  0  0  0
    4.9613   20.7312   27.9878 C   0  0  0  0  0  0  0  0  0  0  0  0
    7.7853   22.4446   24.8408 C   0  0  0  0  0  0  0  0  0  0  0  0
    9.1184   22.7523   25.3973 C   0  0  0  0  0  0  0  0  0  0  0  0
    9.3052   22.8350   26.7883 C   0  0  0  0  0  0  0  0  0  0  0  0
   10.5412   23.1427   27.3074 C   0  0  0  0  0  0  0  0  0  0  0  0
   10.2256   22.9946   24.6239 C   0  0  0  0  0  0  0  0  0  0  0  0
   11.4844   23.3077   25.1554 C   0  0  0  0  0  0  0  0  0  0  0  0
   11.6434   23.3827   26.5209 C   0  0  0  0  0  0  0  0  0  0  0  0
   13.5798   22.7198   27.7755 C   0  0  0  0  0  0  0  0  0  0  0  0
   13.2971   21.3611   27.6697 C   0  0  0  0  0  0  0  0  0  0  0  0
   14.0133   20.4250   28.3725 C   0  0  0  0  0  0  0  0  0  0  0  0
   15.0347   20.7948   29.2057 C   0  0  0  0  0  0  0  0  0  0  0  0
   15.3440   22.1283   29.3368 C   0  0  0  0  0  0  0  0  0  0  0  0
   14.6124   23.0666   28.6205 C   0  0  0  0  0  0  0  0  0  0  0  0
    3.4926   22.6507   29.2219 N   0  0  0  0  0  0  0  0  0  0  0  0
    2.6612   21.0946   30.8664 N   0  0  0  0  0  0  0  0  0  0  0  0
    2.1971   21.9302   31.7730 N   0  0  0  0  0  0  0  0  0  0  0  0
    4.1893   20.4743   29.0895 N   0  0  0  0  0  0  0  0  0  0  0  0
    6.9473   21.8208   25.8686 N   0  0  0  0  0  0  0  0  0  0  0  0
    5.3588   23.4107   25.6464 O   0  0  0  0  0  0  0  0  0  0  0  0
    5.6199   19.8083   27.4568 O   0  0  0  0  0  0  0  0  0  0  0  0
   12.8745   23.6901   27.0786 O   0  0  0  0  0  0  0  0  0  0  0  0
  1  2  1  0
 26  1  1  0
  1 27  2  0
  2  3  2  0
  2  8  1  0
  3 22  1  0
 22  4  2  0
  4 23  1  0
 25  4  1  0
  6  5  1  0
  5 24  2  0
  7  6  2  0
 23  7  1  0
  8 25  1  0
  8 28  2  0
 10  9  1  0
  9 26  1  0
 11 10  2  0
 13 10  1  0
 12 11  1  0
 15 12  2  0
 14 13  2  0
 15 14  1  0
 29 15  1  0
 16 17  2  0
 16 21  1  0
 16 29  1  0
 17 18  1  0
 18 19  2  0
 19 20  1  0
 20 21  2  0
 23 24  1  0
M  END
$$$$
