
     RDKit          3D

 29 32  0  0  0  0  0  0  0  0999 V2000
    5.5378   22.2140   24.8253 C   0  0  0  0  0  0  0  0  0  0  0  0
    5.1046   23.2766   23.9537 C   0  0  0  0  0  0  0  0  0  0  0  0
    5.4055   23.1536   22.5912 C   0  0  0  0  0  0  0  0  0  0  0  0
    4.3598   25.2077   22.1264 C   0  0  0  0  0  0  0  0  0  0  0  0
    3.8467   27.4396   19.3600 C   0  0  0  0  0  0  0  0  0  0  0  0
    2.9278   27.9463   20.2462 C   0  0  0  0  0  0  0  0  0  0  0  0
    3.0319   27.1567   21.3711 C   0  0  0  0  0  0  0  0  0  0  0  0
    4.4292   24.3816   24.3616 C   0  0  0  0  0  0  0  0  0  0  0  0
    6.6595   21.2214   26.8571 C   0  0  0  0  0  0  0  0  0  0  0  0
    7.2471   21.6996   28.1251 C   0  0  0  0  0  0  0  0  0  0  0  0
    6.9937   23.0068   28.5765 C   0  0  0  0  0  0  0  0  0  0  0  0
    7.5576   23.4605   29.7461 C   0  0  0  0  0  0  0  0  0  0  0  0
    8.0722   20.9377   28.9134 C   0  0  0  0  0  0  0  0  0  0  0  0
    8.6454   21.4025   30.1052 C   0  0  0  0  0  0  0  0  0  0  0  0
    8.3827   22.6863   30.5276 C   0  0  0  0  0  0  0  0  0  0  0  0
   10.2685   22.9357   31.9921 C   0  0  0  0  0  0  0  0  0  0  0  0
   10.7057   22.5440   33.2541 C   0  0  0  0  0  0  0  0  0  0  0  0
   12.0339   22.3131   33.5107 C   0  0  0  0  0  0  0  0  0  0  0  0
   12.9797   22.4602   32.5319 C   0  0  0  0  0  0  0  0  0  0  0  0
   12.5865   22.8461   31.2719 C   0  0  0  0  0  0  0  0  0  0  0  0
   11.2397   23.0769   31.0238 C   0  0  0  0  0  0  0  0  0  0  0  0
    5.0267   24.1151   21.7278 N   0  0  0  0  0  0  0  0  0  0  0  0
    3.9721   26.2128   21.1762 N   0  0  0  0  0  0  0  0  0  0  0  0
    4.4480   26.4015   19.9624 N   0  0  0  0  0  0  0  0  0  0  0  0
    4.0761   25.3185   23.4271 N   0  0  0  0  0  0  0  0  0  0  0  0
    6.0995   22.3508   26.1094 N   0  0  0  0  0  0  0  0  0  0  0  0
    5.4211   20.9925   24.4374 O   0  0  0  0  0  0  0  0  0  0  0  0
    4.1286   24.5539   25.5646 O   0  0  0  0  0  0  0  0  0  0  0  0
    8.9336   23.1766   31.7011 O   0  0  0  0  0  0  0  0  0  0  0  0
  1  2  1  0
 26  1  1  0
  1 27  2  0
  2  3  2  0
  2  8  1  0
  3 22  1  0
 22  4  2  0
  4 23  1  0
 25  4  1  0
  6  5  1  0
  5 24  2  0
  7  6  2  0
 23  7  1  0
  8 25  1  0
  8 28  2  0
 10  9  1  0
  9 26  1  0
 11 10  2  0
 13 10  1  0
 12 11  1  0
 15 12  2  0
 14 13  2  0
 15 14  1  0
 29 15  1  0
 16 17  2  0
 16 21  1  0
 16 29  1  0
 17 18  1  0
 18 19  2  0
 19 20  1  0
 20 21  2  0
 23 24  1  0
M  END
$$$$
