
     RDKit          3D

 29 32  0  0  0  0  0  0  0  0999 V2000
    5.8655   22.3968   25.9607 C   0  0  0  0  0  0  0  0  0  0  0  0
    5.4264   23.2680   24.9055 C   0  0  0  0  0  0  0  0  0  0  0  0
    5.7159   22.9516   23.5728 C   0  0  0  0  0  0  0  0  0  0  0  0
    4.6199   24.8874   22.8173 C   0  0  0  0  0  0  0  0  0  0  0  0
    3.2928   27.2838   20.5212 C   0  0  0  0  0  0  0  0  0  0  0  0
    3.9973   26.4677   19.6573 C   0  0  0  0  0  0  0  0  0  0  0  0
    4.5573   25.4983   20.4356 C   0  0  0  0  0  0  0  0  0  0  0  0
    4.7256   24.4190   25.1053 C   0  0  0  0  0  0  0  0  0  0  0  0
    6.2477   21.6424   28.3590 C   0  0  0  0  0  0  0  0  0  0  0  0
    7.6230   21.9311   28.8080 C   0  0  0  0  0  0  0  0  0  0  0  0
    8.1244   23.1908   28.5463 C   0  0  0  0  0  0  0  0  0  0  0  0
    9.3958   23.5268   28.9488 C   0  0  0  0  0  0  0  0  0  0  0  0
    8.3612   21.0028   29.4611 C   0  0  0  0  0  0  0  0  0  0  0  0
    9.6472   21.3302   29.8726 C   0  0  0  0  0  0  0  0  0  0  0  0
   10.1551   22.5896   29.6135 C   0  0  0  0  0  0  0  0  0  0  0  0
   11.6956   22.9529   31.3921 C   0  0  0  0  0  0  0  0  0  0  0  0
   10.6288   22.9466   32.2646 C   0  0  0  0  0  0  0  0  0  0  0  0
   10.8941   23.0318   33.6142 C   0  0  0  0  0  0  0  0  0  0  0  0
   12.1779   23.1213   34.0989 C   0  0  0  0  0  0  0  0  0  0  0  0
   13.2278   23.1255   33.2035 C   0  0  0  0  0  0  0  0  0  0  0  0
   12.9854   23.0407   31.8403 C   0  0  0  0  0  0  0  0  0  0  0  0
    5.3034   23.7689   22.5908 N   0  0  0  0  0  0  0  0  0  0  0  0
    4.2196   25.6965   21.7314 N   0  0  0  0  0  0  0  0  0  0  0  0
    3.4529   26.7879   21.7432 N   0  0  0  0  0  0  0  0  0  0  0  0
    4.3271   25.2193   24.0718 N   0  0  0  0  0  0  0  0  0  0  0  0
    5.7552   22.5573   27.3475 N   0  0  0  0  0  0  0  0  0  0  0  0
    6.4456   21.3083   25.5928 O   0  0  0  0  0  0  0  0  0  0  0  0
    4.4056   24.8100   26.2553 O   0  0  0  0  0  0  0  0  0  0  0  0
   11.4296   22.8674   30.0388 O   0  0  0  0  0  0  0  0  0  0  0  0
  1  2  1  0
 26  1  1  0
  1 27  2  0
  2  3  2  0
  2  8  1  0
  3 22  1  0
 22  4  2  0
  4 23  1  0
 25  4  1  0
  6  5  1  0
  5 24  2  0
  7  6  2  0
 23  7  1  0
  8 25  1  0
  8 28  2  0
 10  9  1  0
  9 26  1  6
 11 10  2  0
 13 10  1  0
 12 11  1  0
 15 12  2  0
 14 13  2  0
 15 14  1  0
 29 15  1  0
 16 17  2  0
 16 21  1  0
 16 29  1  0
 17 18  1  0
 18 19  2  0
 19 20  1  0
 20 21  2  0
 23 24  1  0
M  END
$$$$
