
     RDKit          3D

 29 32  0  0  0  0  0  0  0  0999 V2000
    3.9213   24.9612   23.9962 C   0  0  0  0  0  0  0  0  0  0  0  0
    4.5366   24.3504   25.1470 C   0  0  0  0  0  0  0  0  0  0  0  0
    5.1098   23.0842   24.9736 C   0  0  0  0  0  0  0  0  0  0  0  0
    5.7617   23.0176   27.2317 C   0  0  0  0  0  0  0  0  0  0  0  0
    7.2940   21.8618   30.2671 C   0  0  0  0  0  0  0  0  0  0  0  0
    7.3705   20.7166   29.5127 C   0  0  0  0  0  0  0  0  0  0  0  0
    6.8022   21.0403   28.2995 C   0  0  0  0  0  0  0  0  0  0  0  0
    4.5977   24.9157   26.3800 C   0  0  0  0  0  0  0  0  0  0  0  0
    3.8145   25.7320   21.5949 C   0  0  0  0  0  0  0  0  0  0  0  0
    4.4303   25.3704   20.3019 C   0  0  0  0  0  0  0  0  0  0  0  0
    5.3285   24.2919   20.2204 C   0  0  0  0  0  0  0  0  0  0  0  0
    5.9193   23.9675   19.0214 C   0  0  0  0  0  0  0  0  0  0  0  0
    4.1967   26.0514   19.1339 C   0  0  0  0  0  0  0  0  0  0  0  0
    4.7999   25.7186   17.9131 C   0  0  0  0  0  0  0  0  0  0  0  0
    5.6761   24.6581   17.8574 C   0  0  0  0  0  0  0  0  0  0  0  0
    7.6684   24.3932   16.5445 C   0  0  0  0  0  0  0  0  0  0  0  0
    8.5430   23.9374   17.5266 C   0  0  0  0  0  0  0  0  0  0  0  0
    9.9031   24.0410   17.3766 C   0  0  0  0  0  0  0  0  0  0  0  0
   10.4506   24.5982   16.2523 C   0  0  0  0  0  0  0  0  0  0  0  0
    9.6187   25.0603   15.2596 C   0  0  0  0  0  0  0  0  0  0  0  0
    8.2439   24.9501   15.4223 C   0  0  0  0  0  0  0  0  0  0  0  0
    5.6993   22.4629   26.0128 N   0  0  0  0  0  0  0  0  0  0  0  0
    6.3988   22.3247   28.3168 N   0  0  0  0  0  0  0  0  0  0  0  0
    6.7039   22.7983   29.5076 N   0  0  0  0  0  0  0  0  0  0  0  0
    5.2131   24.2253   27.3901 N   0  0  0  0  0  0  0  0  0  0  0  0
    4.3743   24.9005   22.6641 N   0  0  0  0  0  0  0  0  0  0  0  0
    2.8419   25.6456   24.1464 O   0  0  0  0  0  0  0  0  0  0  0  0
    4.1055   26.0449   26.6037 O   0  0  0  0  0  0  0  0  0  0  0  0
    6.2894   24.3029   16.6663 O   0  0  0  0  0  0  0  0  0  0  0  0
  1  2  1  0
 26  1  1  0
  1 27  2  0
  2  3  2  0
  2  8  1  0
  3 22  1  0
 22  4  2  0
  4 23  1  0
 25  4  1  0
  6  5  1  0
  5 24  2  0
  7  6  2  0
 23  7  1  0
  8 25  1  0
  8 28  2  0
 10  9  1  0
  9 26  1  0
 11 10  2  0
 13 10  1  0
 12 11  1  0
 15 12  2  0
 14 13  2  0
 15 14  1  0
 29 15  1  0
 16 17  2  0
 16 21  1  0
 16 29  1  0
 17 18  1  0
 18 19  2  0
 19 20  1  0
 20 21  2  0
 23 24  1  0
M  END
$$$$
