
     RDKit          3D

 29 32  0  0  0  0  0  0  0  0999 V2000
    5.8003   22.1714   26.0009 C   0  0  0  0  0  0  0  0  0  0  0  0
    6.8313   22.6169   26.9036 C   0  0  0  0  0  0  0  0  0  0  0  0
    8.1001   22.0399   26.7656 C   0  0  0  0  0  0  0  0  0  0  0  0
    8.9358   23.3386   28.5386 C   0  0  0  0  0  0  0  0  0  0  0  0
   11.9535   23.7189   30.4480 C   0  0  0  0  0  0  0  0  0  0  0  0
   11.2835   24.8533   30.8364 C   0  0  0  0  0  0  0  0  0  0  0  0
   10.0851   24.8199   30.1565 C   0  0  0  0  0  0  0  0  0  0  0  0
    6.6567   23.5519   27.8725 C   0  0  0  0  0  0  0  0  0  0  0  0
    3.5951   21.0384   25.5262 C   0  0  0  0  0  0  0  0  0  0  0  0
    2.6784   20.3008   26.4192 C   0  0  0  0  0  0  0  0  0  0  0  0
    2.8153   20.3989   27.8150 C   0  0  0  0  0  0  0  0  0  0  0  0
    1.9761   19.6957   28.6475 C   0  0  0  0  0  0  0  0  0  0  0  0
    1.6783   19.4776   25.9668 C   0  0  0  0  0  0  0  0  0  0  0  0
    0.8241   18.7622   26.8175 C   0  0  0  0  0  0  0  0  0  0  0  0
    0.9769   18.8741   28.1812 C   0  0  0  0  0  0  0  0  0  0  0  0
    0.3403   16.8209   29.2497 C   0  0  0  0  0  0  0  0  0  0  0  0
    1.5355   16.1754   28.9466 C   0  0  0  0  0  0  0  0  0  0  0  0
    1.6938   14.8285   29.1559 C   0  0  0  0  0  0  0  0  0  0  0  0
    0.6786   14.0685   29.6719 C   0  0  0  0  0  0  0  0  0  0  0  0
   -0.5178   14.6704   29.9840 C   0  0  0  0  0  0  0  0  0  0  0  0
   -0.6664   16.0342   29.7680 C   0  0  0  0  0  0  0  0  0  0  0  0
    9.1040   22.4159   27.5807 N   0  0  0  0  0  0  0  0  0  0  0  0
   10.0302   23.7145   29.3897 N   0  0  0  0  0  0  0  0  0  0  0  0
   11.1623   23.0684   29.5804 N   0  0  0  0  0  0  0  0  0  0  0  0
    7.7232   23.8849   28.6647 N   0  0  0  0  0  0  0  0  0  0  0  0
    4.4485   21.9317   26.3148 N   0  0  0  0  0  0  0  0  0  0  0  0
    6.0926   21.9548   24.7666 O   0  0  0  0  0  0  0  0  0  0  0  0
    5.5487   24.1069   28.0498 O   0  0  0  0  0  0  0  0  0  0  0  0
    0.1491   18.1803   29.0498 O   0  0  0  0  0  0  0  0  0  0  0  0
  1  2  1  0
 26  1  1  0
  1 27  2  0
  2  3  2  0
  2  8  1  0
  3 22  1  0
 22  4  2  0
  4 23  1  0
 25  4  1  0
  6  5  1  0
  5 24  2  0
  7  6  2  0
 23  7  1  0
  8 25  1  0
  8 28  2  0
 10  9  1  0
  9 26  1  0
 11 10  2  0
 13 10  1  0
 12 11  1  0
 15 12  2  0
 14 13  2  0
 15 14  1  0
 29 15  1  0
 16 17  2  0
 16 21  1  0
 16 29  1  0
 17 18  1  0
 18 19  2  0
 19 20  1  0
 20 21  2  0
 23 24  1  0
M  END
$$$$
