
     RDKit          3D

 29 32  0  0  0  0  0  0  0  0999 V2000
    5.0518   22.4531   25.3212 C   0  0  0  0  0  0  0  0  0  0  0  0
    4.7712   23.4448   24.3142 C   0  0  0  0  0  0  0  0  0  0  0  0
    4.4094   24.7242   24.7549 C   0  0  0  0  0  0  0  0  0  0  0  0
    4.1950   25.4787   22.5382 C   0  0  0  0  0  0  0  0  0  0  0  0
    3.1968   28.4334   20.7575 C   0  0  0  0  0  0  0  0  0  0  0  0
    3.7376   27.7066   19.7252 C   0  0  0  0  0  0  0  0  0  0  0  0
    4.1648   26.5264   20.2945 C   0  0  0  0  0  0  0  0  0  0  0  0
    4.8332   23.2239   22.9760 C   0  0  0  0  0  0  0  0  0  0  0  0
    5.8056   21.6513   27.5929 C   0  0  0  0  0  0  0  0  0  0  0  0
    6.7557   22.0762   28.6410 C   0  0  0  0  0  0  0  0  0  0  0  0
    7.4137   21.1189   29.4331 C   0  0  0  0  0  0  0  0  0  0  0  0
    8.2822   21.5138   30.4238 C   0  0  0  0  0  0  0  0  0  0  0  0
    7.0362   23.3894   28.9230 C   0  0  0  0  0  0  0  0  0  0  0  0
    7.9222   23.7892   29.9331 C   0  0  0  0  0  0  0  0  0  0  0  0
    8.5554   22.8338   30.6959 C   0  0  0  0  0  0  0  0  0  0  0  0
   10.7963   22.9668   31.5465 C   0  0  0  0  0  0  0  0  0  0  0  0
   11.7095   23.1151   32.5863 C   0  0  0  0  0  0  0  0  0  0  0  0
   13.0489   22.8813   32.4004 C   0  0  0  0  0  0  0  0  0  0  0  0
   13.5368   22.4925   31.1817 C   0  0  0  0  0  0  0  0  0  0  0  0
   12.6654   22.3352   30.1296 C   0  0  0  0  0  0  0  0  0  0  0  0
   11.3121   22.5746   30.3295 C   0  0  0  0  0  0  0  0  0  0  0  0
    4.1350   25.6927   23.8603 N   0  0  0  0  0  0  0  0  0  0  0  0
    3.8953   26.5365   21.6136 N   0  0  0  0  0  0  0  0  0  0  0  0
    3.3143   27.6907   21.8696 N   0  0  0  0  0  0  0  0  0  0  0  0
    4.5408   24.2563   22.1249 N   0  0  0  0  0  0  0  0  0  0  0  0
    5.7788   22.6413   26.5126 N   0  0  0  0  0  0  0  0  0  0  0  0
    4.6149   21.2529   25.1642 O   0  0  0  0  0  0  0  0  0  0  0  0
    5.1499   22.1039   22.5148 O   0  0  0  0  0  0  0  0  0  0  0  0
    9.4369   23.1955   31.7024 O   0  0  0  0  0  0  0  0  0  0  0  0
  1  2  1  0
 26  1  1  0
  1 27  2  0
  2  3  2  0
  2  8  1  0
  3 22  1  0
 22  4  2  0
  4 23  1  0
 25  4  1  0
  6  5  1  0
  5 24  2  0
  7  6  2  0
 23  7  1  0
  8 25  1  0
  8 28  2  0
 10  9  1  0
  9 26  1  0
 11 10  2  0
 13 10  1  0
 12 11  1  0
 15 12  2  0
 14 13  2  0
 15 14  1  0
 29 15  1  0
 16 17  2  0
 16 21  1  0
 16 29  1  0
 17 18  1  0
 18 19  2  0
 19 20  1  0
 20 21  2  0
 23 24  1  0
M  END
$$$$
