
     RDKit          3D

 29 32  0  0  0  0  0  0  0  0999 V2000
    3.7797   24.5370   24.4651 C   0  0  0  0  0  0  0  0  0  0  0  0
    4.3259   24.3599   25.7867 C   0  0  0  0  0  0  0  0  0  0  0  0
    4.6753   23.0584   26.1688 C   0  0  0  0  0  0  0  0  0  0  0  0
    5.3866   23.8178   28.2775 C   0  0  0  0  0  0  0  0  0  0  0  0
    6.4731   22.5236   31.4464 C   0  0  0  0  0  0  0  0  0  0  0  0
    7.0396   23.7739   31.4948 C   0  0  0  0  0  0  0  0  0  0  0  0
    6.6860   24.3808   30.3090 C   0  0  0  0  0  0  0  0  0  0  0  0
    4.5230   25.3628   26.6804 C   0  0  0  0  0  0  0  0  0  0  0  0
    3.7080   23.9577   22.0093 C   0  0  0  0  0  0  0  0  0  0  0  0
    4.6745   23.1451   21.2430 C   0  0  0  0  0  0  0  0  0  0  0  0
    4.5596   23.0355   19.8460 C   0  0  0  0  0  0  0  0  0  0  0  0
    5.4460   22.2617   19.1336 C   0  0  0  0  0  0  0  0  0  0  0  0
    5.7028   22.4444   21.8212 C   0  0  0  0  0  0  0  0  0  0  0  0
    6.6050   21.6567   21.0927 C   0  0  0  0  0  0  0  0  0  0  0  0
    6.4730   21.5647   19.7254 C   0  0  0  0  0  0  0  0  0  0  0  0
    7.4103   20.9596   17.5998 C   0  0  0  0  0  0  0  0  0  0  0  0
    7.1132   19.9367   16.7039 C   0  0  0  0  0  0  0  0  0  0  0  0
    7.1841   20.1313   15.3474 C   0  0  0  0  0  0  0  0  0  0  0  0
    7.5507   21.3423   14.8245 C   0  0  0  0  0  0  0  0  0  0  0  0
    7.8520   22.3777   15.6779 C   0  0  0  0  0  0  0  0  0  0  0  0
    7.7767   22.1691   17.0488 C   0  0  0  0  0  0  0  0  0  0  0  0
    5.1904   22.8304   27.3921 N   0  0  0  0  0  0  0  0  0  0  0  0
    5.9383   23.5365   29.5736 N   0  0  0  0  0  0  0  0  0  0  0  0
    5.8232   22.4277   30.2757 N   0  0  0  0  0  0  0  0  0  0  0  0
    5.0512   25.0565   27.9064 N   0  0  0  0  0  0  0  0  0  0  0  0
    3.7567   23.5864   23.4262 N   0  0  0  0  0  0  0  0  0  0  0  0
    3.2447   25.6639   24.1491 O   0  0  0  0  0  0  0  0  0  0  0  0
    4.2325   26.5485   26.4032 O   0  0  0  0  0  0  0  0  0  0  0  0
    7.3481   20.7944   18.9758 O   0  0  0  0  0  0  0  0  0  0  0  0
  1  2  1  0
 26  1  1  0
  1 27  2  0
  2  3  2  0
  2  8  1  0
  3 22  1  0
 22  4  2  0
  4 23  1  0
 25  4  1  0
  6  5  1  0
  5 24  2  0
  7  6  2  0
 23  7  1  0
  8 25  1  0
  8 28  2  0
 10  9  1  0
  9 26  1  0
 11 10  2  0
 13 10  1  0
 12 11  1  0
 15 12  2  0
 14 13  2  0
 15 14  1  0
 29 15  1  0
 16 17  2  0
 16 21  1  0
 16 29  1  0
 17 18  1  0
 18 19  2  0
 19 20  1  0
 20 21  2  0
 23 24  1  0
M  END
$$$$
