
     RDKit          3D

 29 32  0  0  0  0  0  0  0  0999 V2000
    4.7469   23.9790   25.4805 C   0  0  0  0  0  0  0  0  0  0  0  0
    4.8214   24.4728   24.1330 C   0  0  0  0  0  0  0  0  0  0  0  0
    5.4440   23.7052   23.1415 C   0  0  0  0  0  0  0  0  0  0  0  0
    5.0079   25.3470   21.5187 C   0  0  0  0  0  0  0  0  0  0  0  0
    5.5139   25.8162   18.0116 C   0  0  0  0  0  0  0  0  0  0  0  0
    5.0126   27.0546   18.3636 C   0  0  0  0  0  0  0  0  0  0  0  0
    4.7778   26.9926   19.7052 C   0  0  0  0  0  0  0  0  0  0  0  0
    4.3163   25.6715   23.7282 C   0  0  0  0  0  0  0  0  0  0  0  0
    5.5116   22.5712   27.4554 C   0  0  0  0  0  0  0  0  0  0  0  0
    6.9186   22.6015   27.8982 C   0  0  0  0  0  0  0  0  0  0  0  0
    7.3752   21.5263   28.6346 C   0  0  0  0  0  0  0  0  0  0  0  0
    8.6797   21.4885   29.0678 C   0  0  0  0  0  0  0  0  0  0  0  0
    7.7340   23.6362   27.5857 C   0  0  0  0  0  0  0  0  0  0  0  0
    9.0542   23.6096   28.0179 C   0  0  0  0  0  0  0  0  0  0  0  0
    9.5174   22.5361   28.7557 C   0  0  0  0  0  0  0  0  0  0  0  0
   11.1383   22.3100   30.4850 C   0  0  0  0  0  0  0  0  0  0  0  0
   10.1277   22.4095   31.4168 C   0  0  0  0  0  0  0  0  0  0  0  0
   10.4370   22.1663   32.7375 C   0  0  0  0  0  0  0  0  0  0  0  0
   11.7098   21.8327   33.1370 C   0  0  0  0  0  0  0  0  0  0  0  0
   12.7030   21.7400   32.1836 C   0  0  0  0  0  0  0  0  0  0  0  0
   12.4157   21.9802   30.8479 C   0  0  0  0  0  0  0  0  0  0  0  0
    5.5109   24.1711   21.8841 N   0  0  0  0  0  0  0  0  0  0  0  0
    5.1166   25.7694   20.1756 N   0  0  0  0  0  0  0  0  0  0  0  0
    5.5585   25.0847   19.1196 N   0  0  0  0  0  0  0  0  0  0  0  0
    4.4090   26.1031   22.4350 N   0  0  0  0  0  0  0  0  0  0  0  0
    5.3345   22.8381   26.0412 N   0  0  0  0  0  0  0  0  0  0  0  0
    4.0420   24.6759   26.3015 O   0  0  0  0  0  0  0  0  0  0  0  0
    3.7350   26.4497   24.5247 O   0  0  0  0  0  0  0  0  0  0  0  0
   10.8283   22.5537   29.1605 O   0  0  0  0  0  0  0  0  0  0  0  0
  1  2  1  0
 26  1  1  0
  1 27  2  0
  2  3  2  0
  2  8  1  0
  3 22  1  0
 22  4  2  0
  4 23  1  0
 25  4  1  0
  6  5  1  0
  5 24  2  0
  7  6  2  0
 23  7  1  0
  8 25  1  0
  8 28  2  0
 10  9  1  0
  9 26  1  6
 11 10  2  0
 13 10  1  0
 12 11  1  0
 15 12  2  0
 14 13  2  0
 15 14  1  0
 29 15  1  0
 16 17  2  0
 16 21  1  0
 16 29  1  0
 17 18  1  0
 18 19  2  0
 19 20  1  0
 20 21  2  0
 23 24  1  0
M  END
$$$$
