
     RDKit          3D

 29 32  0  0  0  0  0  0  0  0999 V2000
    4.7507   23.8741   24.0905 C   0  0  0  0  0  0  0  0  0  0  0  0
    5.0714   24.3733   25.4035 C   0  0  0  0  0  0  0  0  0  0  0  0
    5.6754   23.4826   26.3001 C   0  0  0  0  0  0  0  0  0  0  0  0
    5.7605   25.1414   27.9644 C   0  0  0  0  0  0  0  0  0  0  0  0
    6.6473   25.4922   31.4268 C   0  0  0  0  0  0  0  0  0  0  0  0
    6.6378   26.8131   31.0502 C   0  0  0  0  0  0  0  0  0  0  0  0
    6.3037   26.8088   29.7130 C   0  0  0  0  0  0  0  0  0  0  0  0
    4.8290   25.6402   25.8274 C   0  0  0  0  0  0  0  0  0  0  0  0
    4.9054   22.3057   22.1187 C   0  0  0  0  0  0  0  0  0  0  0  0
    5.5295   21.0052   21.8013 C   0  0  0  0  0  0  0  0  0  0  0  0
    4.9264   19.8069   22.2221 C   0  0  0  0  0  0  0  0  0  0  0  0
    5.5176   18.5960   21.9459 C   0  0  0  0  0  0  0  0  0  0  0  0
    6.7126   20.8784   21.1181 C   0  0  0  0  0  0  0  0  0  0  0  0
    7.3129   19.6430   20.8377 C   0  0  0  0  0  0  0  0  0  0  0  0
    6.7037   18.4826   21.2595 C   0  0  0  0  0  0  0  0  0  0  0  0
    7.8097   16.4987   22.0364 C   0  0  0  0  0  0  0  0  0  0  0  0
    8.0044   15.1231   21.9530 C   0  0  0  0  0  0  0  0  0  0  0  0
    8.5399   14.4122   22.9975 C   0  0  0  0  0  0  0  0  0  0  0  0
    8.9033   15.0322   24.1628 C   0  0  0  0  0  0  0  0  0  0  0  0
    8.7263   16.3905   24.2832 C   0  0  0  0  0  0  0  0  0  0  0  0
    8.1834   17.0996   23.2196 C   0  0  0  0  0  0  0  0  0  0  0  0
    5.9982   23.8915   27.5420 N   0  0  0  0  0  0  0  0  0  0  0  0
    6.1187   25.5418   29.2967 N   0  0  0  0  0  0  0  0  0  0  0  0
    6.3302   24.7682   30.3418 N   0  0  0  0  0  0  0  0  0  0  0  0
    5.1843   25.9856   27.1042 N   0  0  0  0  0  0  0  0  0  0  0  0
    5.2497   22.7038   23.4865 N   0  0  0  0  0  0  0  0  0  0  0  0
    3.9265   24.5290   23.3503 O   0  0  0  0  0  0  0  0  0  0  0  0
    4.2921   26.4864   25.0771 O   0  0  0  0  0  0  0  0  0  0  0  0
    7.2708   17.2452   20.9987 O   0  0  0  0  0  0  0  0  0  0  0  0
  1  2  1  0
 26  1  1  0
  1 27  2  0
  2  3  2  0
  2  8  1  0
  3 22  1  0
 22  4  2  0
  4 23  1  0
 25  4  1  0
  6  5  1  0
  5 24  2  0
  7  6  2  0
 23  7  1  0
  8 25  1  0
  8 28  2  0
 10  9  1  0
  9 26  1  0
 11 10  2  0
 13 10  1  0
 12 11  1  0
 15 12  2  0
 14 13  2  0
 15 14  1  0
 29 15  1  0
 16 17  2  0
 16 21  1  0
 16 29  1  0
 17 18  1  0
 18 19  2  0
 19 20  1  0
 20 21  2  0
 23 24  1  0
M  END
$$$$
