
     RDKit          3D

 29 32  0  0  0  0  0  0  0  0999 V2000
    4.8420   23.2772   25.4376 C   0  0  0  0  0  0  0  0  0  0  0  0
    4.6868   24.0369   24.2277 C   0  0  0  0  0  0  0  0  0  0  0  0
    4.9240   23.4316   22.9878 C   0  0  0  0  0  0  0  0  0  0  0  0
    4.4119   25.4248   21.8546 C   0  0  0  0  0  0  0  0  0  0  0  0
    4.2215   26.5849   18.4791 C   0  0  0  0  0  0  0  0  0  0  0  0
    3.9201   27.7462   19.1640 C   0  0  0  0  0  0  0  0  0  0  0  0
    3.9636   27.4193   20.4869 C   0  0  0  0  0  0  0  0  0  0  0  0
    4.3140   25.3466   24.1891 C   0  0  0  0  0  0  0  0  0  0  0  0
    5.1202   22.9028   27.9376 C   0  0  0  0  0  0  0  0  0  0  0  0
    6.5510   22.6688   28.2101 C   0  0  0  0  0  0  0  0  0  0  0  0
    6.9097   22.3783   29.5115 C   0  0  0  0  0  0  0  0  0  0  0  0
    8.2260   22.1389   29.8293 C   0  0  0  0  0  0  0  0  0  0  0  0
    7.4754   22.7248   27.2223 C   0  0  0  0  0  0  0  0  0  0  0  0
    8.8086   22.4849   27.5309 C   0  0  0  0  0  0  0  0  0  0  0  0
    9.1742   22.1938   28.8320 C   0  0  0  0  0  0  0  0  0  0  0  0
   11.1129   22.6007   30.1530 C   0  0  0  0  0  0  0  0  0  0  0  0
   12.3600   22.1619   30.5424 C   0  0  0  0  0  0  0  0  0  0  0  0
   12.9689   22.7968   31.6032 C   0  0  0  0  0  0  0  0  0  0  0  0
   12.3685   23.8398   32.2686 C   0  0  0  0  0  0  0  0  0  0  0  0
   11.1196   24.2592   31.8581 C   0  0  0  0  0  0  0  0  0  0  0  0
   10.4869   23.6355   30.7928 C   0  0  0  0  0  0  0  0  0  0  0  0
    4.7777   24.1459   21.8605 N   0  0  0  0  0  0  0  0  0  0  0  0
    4.2784   26.1103   20.6272 N   0  0  0  0  0  0  0  0  0  0  0  0
    4.4271   25.6385   19.3885 N   0  0  0  0  0  0  0  0  0  0  0  0
    4.1782   26.0323   23.0149 N   0  0  0  0  0  0  0  0  0  0  0  0
    4.8708   23.7200   26.7659 N   0  0  0  0  0  0  0  0  0  0  0  0
    4.9747   22.0049   25.2951 O   0  0  0  0  0  0  0  0  0  0  0  0
    4.0732   25.9992   25.2350 O   0  0  0  0  0  0  0  0  0  0  0  0
   10.5023   21.9641   29.0892 O   0  0  0  0  0  0  0  0  0  0  0  0
  1  2  1  0
 26  1  1  0
  1 27  2  0
  2  3  2  0
  2  8  1  0
  3 22  1  0
 22  4  2  0
  4 23  1  0
 25  4  1  0
  6  5  1  0
  5 24  2  0
  7  6  2  0
 23  7  1  0
  8 25  1  0
  8 28  2  0
 10  9  1  0
  9 26  1  6
 11 10  2  0
 13 10  1  0
 12 11  1  0
 15 12  2  0
 14 13  2  0
 15 14  1  0
 29 15  1  0
 16 17  2  0
 16 21  1  0
 16 29  1  0
 17 18  1  0
 18 19  2  0
 19 20  1  0
 20 21  2  0
 23 24  1  0
M  END
$$$$
