
     RDKit          3D

 29 32  0  0  0  0  0  0  0  0999 V2000
    4.7967   24.9320   23.2845 C   0  0  0  0  0  0  0  0  0  0  0  0
    5.0275   24.4004   24.5995 C   0  0  0  0  0  0  0  0  0  0  0  0
    6.0408   23.4561   24.8030 C   0  0  0  0  0  0  0  0  0  0  0  0
    5.5374   23.3280   27.0942 C   0  0  0  0  0  0  0  0  0  0  0  0
    5.8526   22.3632   30.5214 C   0  0  0  0  0  0  0  0  0  0  0  0
    6.6764   21.4321   29.9189 C   0  0  0  0  0  0  0  0  0  0  0  0
    6.6340   21.7071   28.5842 C   0  0  0  0  0  0  0  0  0  0  0  0
    4.3132   24.7544   25.7042 C   0  0  0  0  0  0  0  0  0  0  0  0
    3.7682   26.6677   21.7364 C   0  0  0  0  0  0  0  0  0  0  0  0
    4.1421   26.0950   20.4293 C   0  0  0  0  0  0  0  0  0  0  0  0
    4.2378   24.7202   20.3432 C   0  0  0  0  0  0  0  0  0  0  0  0
    4.5714   24.1233   19.1501 C   0  0  0  0  0  0  0  0  0  0  0  0
    4.3713   26.8841   19.3532 C   0  0  0  0  0  0  0  0  0  0  0  0
    4.7093   26.2928   18.1423 C   0  0  0  0  0  0  0  0  0  0  0  0
    4.8069   24.9168   18.0494 C   0  0  0  0  0  0  0  0  0  0  0  0
    5.2027   25.1915   15.7177 C   0  0  0  0  0  0  0  0  0  0  0  0
    4.4676   24.8281   14.6100 C   0  0  0  0  0  0  0  0  0  0  0  0
    4.5269   25.6393   13.4976 C   0  0  0  0  0  0  0  0  0  0  0  0
    5.2903   26.7828   13.4710 C   0  0  0  0  0  0  0  0  0  0  0  0
    6.0165   27.1235   14.5938 C   0  0  0  0  0  0  0  0  0  0  0  0
    5.9728   26.3224   15.7255 C   0  0  0  0  0  0  0  0  0  0  0  0
    6.2522   22.9625   26.0336 N   0  0  0  0  0  0  0  0  0  0  0  0
    5.8195   22.7644   28.3579 N   0  0  0  0  0  0  0  0  0  0  0  0
    5.3649   23.1345   29.5560 N   0  0  0  0  0  0  0  0  0  0  0  0
    4.5661   24.2235   26.9377 N   0  0  0  0  0  0  0  0  0  0  0  0
    3.7227   25.6967   22.8125 N   0  0  0  0  0  0  0  0  0  0  0  0
    5.6993   24.6763   22.4032 O   0  0  0  0  0  0  0  0  0  0  0  0
    3.3786   25.5919   25.6499 O   0  0  0  0  0  0  0  0  0  0  0  0
    5.1433   24.3780   16.8333 O   0  0  0  0  0  0  0  0  0  0  0  0
  1  2  1  0
 26  1  1  0
  1 27  2  0
  2  3  2  0
  2  8  1  0
  3 22  1  0
 22  4  2  0
  4 23  1  0
 25  4  1  0
  6  5  1  0
  5 24  2  0
  7  6  2  0
 23  7  1  0
  8 25  1  0
  8 28  2  0
 10  9  1  0
  9 26  1  6
 11 10  2  0
 13 10  1  0
 12 11  1  0
 15 12  2  0
 14 13  2  0
 15 14  1  0
 29 15  1  0
 16 17  2  0
 16 21  1  0
 16 29  1  0
 17 18  1  0
 18 19  2  0
 19 20  1  0
 20 21  2  0
 23 24  1  0
M  END
$$$$
