
     RDKit          3D

 29 32  0  0  0  0  0  0  0  0999 V2000
    5.4908   22.3347   25.0565 C   0  0  0  0  0  0  0  0  0  0  0  0
    4.3314   22.0078   25.8472 C   0  0  0  0  0  0  0  0  0  0  0  0
    4.0246   20.6505   26.0079 C   0  0  0  0  0  0  0  0  0  0  0  0
    2.1510   21.1813   27.3257 C   0  0  0  0  0  0  0  0  0  0  0  0
   -0.4391   19.4991   29.1583 C   0  0  0  0  0  0  0  0  0  0  0  0
   -0.8640   20.7988   29.2876 C   0  0  0  0  0  0  0  0  0  0  0  0
    0.0681   21.5562   28.6116 C   0  0  0  0  0  0  0  0  0  0  0  0
    3.5218   22.9205   26.4429 C   0  0  0  0  0  0  0  0  0  0  0  0
    7.9213   22.1892   24.3911 C   0  0  0  0  0  0  0  0  0  0  0  0
    9.0156   22.3100   25.3757 C   0  0  0  0  0  0  0  0  0  0  0  0
    8.7943   21.9875   26.7262 C   0  0  0  0  0  0  0  0  0  0  0  0
    9.8064   22.1201   27.6481 C   0  0  0  0  0  0  0  0  0  0  0  0
   10.2752   22.7525   25.0591 C   0  0  0  0  0  0  0  0  0  0  0  0
   11.3051   22.8865   26.0007 C   0  0  0  0  0  0  0  0  0  0  0  0
   11.0651   22.5643   27.3175 C   0  0  0  0  0  0  0  0  0  0  0  0
   13.3945   22.6577   27.8902 C   0  0  0  0  0  0  0  0  0  0  0  0
   14.4141   23.1946   28.6708 C   0  0  0  0  0  0  0  0  0  0  0  0
   15.7241   23.1517   28.2641 C   0  0  0  0  0  0  0  0  0  0  0  0
   16.0764   22.5775   27.0722 C   0  0  0  0  0  0  0  0  0  0  0  0
   15.0970   22.0361   26.2731 C   0  0  0  0  0  0  0  0  0  0  0  0
   13.7747   22.0854   26.6950 C   0  0  0  0  0  0  0  0  0  0  0  0
    2.9530   20.2833   26.7360 N   0  0  0  0  0  0  0  0  0  0  0  0
    1.0164   20.7521   28.0950 N   0  0  0  0  0  0  0  0  0  0  0  0
    0.6918   19.5216   28.4355 N   0  0  0  0  0  0  0  0  0  0  0  0
    2.4495   22.4739   27.1685 N   0  0  0  0  0  0  0  0  0  0  0  0
    6.7225   21.6521   25.0408 N   0  0  0  0  0  0  0  0  0  0  0  0
    5.4491   23.3481   24.2644 O   0  0  0  0  0  0  0  0  0  0  0  0
    3.7389   24.1492   26.3395 O   0  0  0  0  0  0  0  0  0  0  0  0
   12.0615   22.6855   28.2733 O   0  0  0  0  0  0  0  0  0  0  0  0
  1  2  1  0
 26  1  1  0
  1 27  2  0
  2  3  2  0
  2  8  1  0
  3 22  1  0
 22  4  2  0
  4 23  1  0
 25  4  1  0
  6  5  1  0
  5 24  2  0
  7  6  2  0
 23  7  1  0
  8 25  1  0
  8 28  2  0
 10  9  1  0
  9 26  1  0
 11 10  2  0
 13 10  1  0
 12 11  1  0
 15 12  2  0
 14 13  2  0
 15 14  1  0
 29 15  1  0
 16 17  2  0
 16 21  1  0
 16 29  1  0
 17 18  1  0
 18 19  2  0
 19 20  1  0
 20 21  2  0
 23 24  1  0
M  END
$$$$
