
     RDKit          3D

 29 32  0  0  0  0  0  0  0  0999 V2000
    5.2666   22.9513   25.6166 C   0  0  0  0  0  0  0  0  0  0  0  0
    5.0829   23.6937   24.3999 C   0  0  0  0  0  0  0  0  0  0  0  0
    5.4021   23.1076   23.1692 C   0  0  0  0  0  0  0  0  0  0  0  0
    4.7602   25.0503   22.0147 C   0  0  0  0  0  0  0  0  0  0  0  0
    4.0479   27.1934   19.2442 C   0  0  0  0  0  0  0  0  0  0  0  0
    4.7401   26.1801   18.6098 C   0  0  0  0  0  0  0  0  0  0  0  0
    5.0694   25.2872   19.5861 C   0  0  0  0  0  0  0  0  0  0  0  0
    4.6058   24.9686   24.3460 C   0  0  0  0  0  0  0  0  0  0  0  0
    5.4374   22.5919   28.1283 C   0  0  0  0  0  0  0  0  0  0  0  0
    6.8570   22.5632   28.5287 C   0  0  0  0  0  0  0  0  0  0  0  0
    7.1935   21.7828   29.6170 C   0  0  0  0  0  0  0  0  0  0  0  0
    8.5015   21.7044   30.0342 C   0  0  0  0  0  0  0  0  0  0  0  0
    7.7954   23.2645   27.8499 C   0  0  0  0  0  0  0  0  0  0  0  0
    9.1203   23.1936   28.2619 C   0  0  0  0  0  0  0  0  0  0  0  0
    9.4638   22.4142   29.3509 C   0  0  0  0  0  0  0  0  0  0  0  0
   11.1293   22.5622   31.0459 C   0  0  0  0  0  0  0  0  0  0  0  0
   12.4261   22.9299   31.3330 C   0  0  0  0  0  0  0  0  0  0  0  0
   12.7699   23.1168   32.6543 C   0  0  0  0  0  0  0  0  0  0  0  0
   11.8621   22.9468   33.6732 C   0  0  0  0  0  0  0  0  0  0  0  0
   10.5703   22.5783   33.3579 C   0  0  0  0  0  0  0  0  0  0  0  0
   10.2007   22.3845   32.0350 C   0  0  0  0  0  0  0  0  0  0  0  0
    5.2287   23.8055   22.0355 N   0  0  0  0  0  0  0  0  0  0  0  0
    4.6046   25.7204   20.7815 N   0  0  0  0  0  0  0  0  0  0  0  0
    3.9913   26.8786   20.5336 N   0  0  0  0  0  0  0  0  0  0  0  0
    4.4465   25.6388   23.1659 N   0  0  0  0  0  0  0  0  0  0  0  0
    5.1764   23.3874   26.9443 N   0  0  0  0  0  0  0  0  0  0  0  0
    5.5563   21.7045   25.4817 O   0  0  0  0  0  0  0  0  0  0  0  0
    4.2845   25.6013   25.3825 O   0  0  0  0  0  0  0  0  0  0  0  0
   10.7844   22.3749   29.7209 O   0  0  0  0  0  0  0  0  0  0  0  0
  1  2  1  0
 26  1  1  0
  1 27  2  0
  2  3  2  0
  2  8  1  0
  3 22  1  0
 22  4  2  0
  4 23  1  0
 25  4  1  0
  6  5  1  0
  5 24  2  0
  7  6  2  0
 23  7  1  0
  8 25  1  0
  8 28  2  0
 10  9  1  0
  9 26  1  6
 11 10  2  0
 13 10  1  0
 12 11  1  0
 15 12  2  0
 14 13  2  0
 15 14  1  0
 29 15  1  0
 16 17  2  0
 16 21  1  0
 16 29  1  0
 17 18  1  0
 18 19  2  0
 19 20  1  0
 20 21  2  0
 23 24  1  0
M  END
$$$$
