
     RDKit          3D

 29 32  0  0  0  0  0  0  0  0999 V2000
    4.3168   25.1294   23.2986 C   0  0  0  0  0  0  0  0  0  0  0  0
    4.6814   24.5108   24.5434 C   0  0  0  0  0  0  0  0  0  0  0  0
    5.3285   23.2693   24.5429 C   0  0  0  0  0  0  0  0  0  0  0  0
    5.4166   23.2523   26.8905 C   0  0  0  0  0  0  0  0  0  0  0  0
    6.5413   21.0735   29.4913 C   0  0  0  0  0  0  0  0  0  0  0  0
    6.1967   22.1907   30.2274 C   0  0  0  0  0  0  0  0  0  0  0  0
    5.7452   23.1063   29.3237 C   0  0  0  0  0  0  0  0  0  0  0  0
    4.4390   25.0552   25.7684 C   0  0  0  0  0  0  0  0  0  0  0  0
    3.1615   25.3244   21.0415 C   0  0  0  0  0  0  0  0  0  0  0  0
    4.0086   24.8076   19.9498 C   0  0  0  0  0  0  0  0  0  0  0  0
    3.7241   25.2369   18.6686 C   0  0  0  0  0  0  0  0  0  0  0  0
    4.4835   24.8009   17.6083 C   0  0  0  0  0  0  0  0  0  0  0  0
    5.0319   23.9554   20.1944 C   0  0  0  0  0  0  0  0  0  0  0  0
    5.8063   23.5077   19.1313 C   0  0  0  0  0  0  0  0  0  0  0  0
    5.5265   23.9336   17.8461 C   0  0  0  0  0  0  0  0  0  0  0  0
    7.3524   24.2472   16.3506 C   0  0  0  0  0  0  0  0  0  0  0  0
    7.3174   25.5997   16.6132 C   0  0  0  0  0  0  0  0  0  0  0  0
    8.3488   26.3798   16.1368 C   0  0  0  0  0  0  0  0  0  0  0  0
    9.3927   25.8459   15.4182 C   0  0  0  0  0  0  0  0  0  0  0  0
    9.4031   24.4887   15.1695 C   0  0  0  0  0  0  0  0  0  0  0  0
    8.3758   23.6832   15.6388 C   0  0  0  0  0  0  0  0  0  0  0  0
    5.6669   22.6955   25.7087 N   0  0  0  0  0  0  0  0  0  0  0  0
    5.8036   22.5875   28.0748 N   0  0  0  0  0  0  0  0  0  0  0  0
    6.2912   21.3542   28.2172 N   0  0  0  0  0  0  0  0  0  0  0  0
    4.8030   24.4320   26.9288 N   0  0  0  0  0  0  0  0  0  0  0  0
    3.4083   24.6961   22.3249 N   0  0  0  0  0  0  0  0  0  0  0  0
    4.9019   26.2431   23.0262 O   0  0  0  0  0  0  0  0  0  0  0  0
    3.8651   26.1648   25.8997 O   0  0  0  0  0  0  0  0  0  0  0  0
    6.3182   23.4649   16.8282 O   0  0  0  0  0  0  0  0  0  0  0  0
  1  2  1  0
 26  1  1  0
  1 27  2  0
  2  3  2  0
  2  8  1  0
  3 22  1  0
 22  4  2  0
  4 23  1  0
 25  4  1  0
  6  5  1  0
  5 24  2  0
  7  6  2  0
 23  7  1  0
  8 25  1  0
  8 28  2  0
 10  9  1  0
  9 26  1  6
 11 10  2  0
 13 10  1  0
 12 11  1  0
 15 12  2  0
 14 13  2  0
 15 14  1  0
 29 15  1  0
 16 17  2  0
 16 21  1  0
 16 29  1  0
 17 18  1  0
 18 19  2  0
 19 20  1  0
 20 21  2  0
 23 24  1  0
M  END
$$$$
