
     RDKit          3D

 29 32  0  0  0  0  0  0  0  0999 V2000
    3.9919   24.0276   24.6143 C   0  0  0  0  0  0  0  0  0  0  0  0
    4.2477   24.5294   23.2922 C   0  0  0  0  0  0  0  0  0  0  0  0
    4.1213   23.6801   22.1864 C   0  0  0  0  0  0  0  0  0  0  0  0
    4.7207   25.4128   20.7175 C   0  0  0  0  0  0  0  0  0  0  0  0
    5.1155   25.8915   17.1974 C   0  0  0  0  0  0  0  0  0  0  0  0
    5.5208   27.1254   17.6683 C   0  0  0  0  0  0  0  0  0  0  0  0
    5.4105   27.0596   19.0257 C   0  0  0  0  0  0  0  0  0  0  0  0
    4.6167   25.8119   23.0187 C   0  0  0  0  0  0  0  0  0  0  0  0
    4.3005   22.5091   26.6308 C   0  0  0  0  0  0  0  0  0  0  0  0
    5.3958   21.8235   27.3426 C   0  0  0  0  0  0  0  0  0  0  0  0
    6.4732   21.3990   26.5906 C   0  0  0  0  0  0  0  0  0  0  0  0
    7.5319   20.7634   27.1958 C   0  0  0  0  0  0  0  0  0  0  0  0
    5.3530   21.6280   28.6817 C   0  0  0  0  0  0  0  0  0  0  0  0
    6.4165   20.9868   29.3047 C   0  0  0  0  0  0  0  0  0  0  0  0
    7.4981   20.5592   28.5573 C   0  0  0  0  0  0  0  0  0  0  0  0
    9.6337   19.5077   28.5080 C   0  0  0  0  0  0  0  0  0  0  0  0
    9.9490   20.1684   27.3403 C   0  0  0  0  0  0  0  0  0  0  0  0
   11.0548   19.7462   26.6346 C   0  0  0  0  0  0  0  0  0  0  0  0
   11.8355   18.6987   27.0639 C   0  0  0  0  0  0  0  0  0  0  0  0
   11.4973   18.0547   28.2365 C   0  0  0  0  0  0  0  0  0  0  0  0
   10.3886   18.4617   28.9641 C   0  0  0  0  0  0  0  0  0  0  0  0
    4.3615   24.1540   20.9534 N   0  0  0  0  0  0  0  0  0  0  0  0
    4.9558   25.8381   19.3916 N   0  0  0  0  0  0  0  0  0  0  0  0
    4.7889   25.1585   18.2561 N   0  0  0  0  0  0  0  0  0  0  0  0
    4.8505   26.2480   21.7449 N   0  0  0  0  0  0  0  0  0  0  0  0
    4.6865   23.0547   25.3439 N   0  0  0  0  0  0  0  0  0  0  0  0
    2.9818   24.5367   25.2284 O   0  0  0  0  0  0  0  0  0  0  0  0
    4.7632   26.6682   23.9259 O   0  0  0  0  0  0  0  0  0  0  0  0
    8.5248   19.9310   29.2158 O   0  0  0  0  0  0  0  0  0  0  0  0
  1  2  1  0
 26  1  1  0
  1 27  2  0
  2  3  2  0
  2  8  1  0
  3 22  1  0
 22  4  2  0
  4 23  1  0
 25  4  1  0
  6  5  1  0
  5 24  2  0
  7  6  2  0
 23  7  1  0
  8 25  1  0
  8 28  2  0
 10  9  1  0
  9 26  1  6
 11 10  2  0
 13 10  1  0
 12 11  1  0
 15 12  2  0
 14 13  2  0
 15 14  1  0
 29 15  1  0
 16 17  2  0
 16 21  1  0
 16 29  1  0
 17 18  1  0
 18 19  2  0
 19 20  1  0
 20 21  2  0
 23 24  1  0
M  END
$$$$
