
     RDKit          3D

 29 32  0  0  0  0  0  0  0  0999 V2000
    5.1970   23.9849   23.7842 C   0  0  0  0  0  0  0  0  0  0  0  0
    5.6259   24.2226   25.1391 C   0  0  0  0  0  0  0  0  0  0  0  0
    6.6172   23.3795   25.6570 C   0  0  0  0  0  0  0  0  0  0  0  0
    6.5782   24.5185   27.7137 C   0  0  0  0  0  0  0  0  0  0  0  0
    7.3689   25.3934   31.1058 C   0  0  0  0  0  0  0  0  0  0  0  0
    8.2593   24.3654   30.9131 C   0  0  0  0  0  0  0  0  0  0  0  0
    8.0481   23.9375   29.6201 C   0  0  0  0  0  0  0  0  0  0  0  0
    5.1369   25.2022   25.9421 C   0  0  0  0  0  0  0  0  0  0  0  0
    5.3151   22.7406   21.5911 C   0  0  0  0  0  0  0  0  0  0  0  0
    5.6487   21.3022   21.5544 C   0  0  0  0  0  0  0  0  0  0  0  0
    5.6658   20.6083   20.3318 C   0  0  0  0  0  0  0  0  0  0  0  0
    5.9552   19.2641   20.2986 C   0  0  0  0  0  0  0  0  0  0  0  0
    5.9324   20.5608   22.6736 C   0  0  0  0  0  0  0  0  0  0  0  0
    6.2273   19.1908   22.6370 C   0  0  0  0  0  0  0  0  0  0  0  0
    6.2385   18.5324   21.4279 C   0  0  0  0  0  0  0  0  0  0  0  0
    5.6117   16.3061   20.7847 C   0  0  0  0  0  0  0  0  0  0  0  0
    5.9431   15.0081   20.4073 C   0  0  0  0  0  0  0  0  0  0  0  0
    5.0155   14.1687   19.8432 C   0  0  0  0  0  0  0  0  0  0  0  0
    3.7268   14.5789   19.6306 C   0  0  0  0  0  0  0  0  0  0  0  0
    3.3611   15.8548   19.9904 C   0  0  0  0  0  0  0  0  0  0  0  0
    4.3083   16.6954   20.5604 C   0  0  0  0  0  0  0  0  0  0  0  0
    7.0584   23.5527   26.9175 N   0  0  0  0  0  0  0  0  0  0  0  0
    7.0731   24.6730   29.0533 N   0  0  0  0  0  0  0  0  0  0  0  0
    6.6800   25.5407   29.9632 N   0  0  0  0  0  0  0  0  0  0  0  0
    5.6330   25.3191   27.2133 N   0  0  0  0  0  0  0  0  0  0  0  0
    5.9399   23.3682   22.7589 N   0  0  0  0  0  0  0  0  0  0  0  0
    4.0196   24.3558   23.4206 O   0  0  0  0  0  0  0  0  0  0  0  0
    4.2501   25.9901   25.5420 O   0  0  0  0  0  0  0  0  0  0  0  0
    6.5261   17.1784   21.3570 O   0  0  0  0  0  0  0  0  0  0  0  0
  1  2  1  0
 26  1  1  0
  1 27  2  0
  2  3  2  0
  2  8  1  0
  3 22  1  0
 22  4  2  0
  4 23  1  0
 25  4  1  0
  6  5  1  0
  5 24  2  0
  7  6  2  0
 23  7  1  0
  8 25  1  0
  8 28  2  0
 10  9  1  0
  9 26  1  0
 11 10  2  0
 13 10  1  0
 12 11  1  0
 15 12  2  0
 14 13  2  0
 15 14  1  0
 29 15  1  0
 16 17  2  0
 16 21  1  0
 16 29  1  0
 17 18  1  0
 18 19  2  0
 19 20  1  0
 20 21  2  0
 23 24  1  0
M  END
$$$$
