
     RDKit          3D

 29 32  0  0  0  0  0  0  0  0999 V2000
    4.5777   24.3282   25.1396 C   0  0  0  0  0  0  0  0  0  0  0  0
    4.6877   24.8393   23.8010 C   0  0  0  0  0  0  0  0  0  0  0  0
    5.3813   24.1082   22.8292 C   0  0  0  0  0  0  0  0  0  0  0  0
    4.9466   25.7491   21.2051 C   0  0  0  0  0  0  0  0  0  0  0  0
    5.6279   26.2992   17.7396 C   0  0  0  0  0  0  0  0  0  0  0  0
    4.9560   27.4646   18.0543 C   0  0  0  0  0  0  0  0  0  0  0  0
    4.6401   27.3658   19.3769 C   0  0  0  0  0  0  0  0  0  0  0  0
    4.1518   26.0213   23.3867 C   0  0  0  0  0  0  0  0  0  0  0  0
    5.3357   23.1226   27.2465 C   0  0  0  0  0  0  0  0  0  0  0  0
    6.5558   22.5238   27.8203 C   0  0  0  0  0  0  0  0  0  0  0  0
    7.4146   21.8791   26.9523 C   0  0  0  0  0  0  0  0  0  0  0  0
    8.5746   21.3096   27.4224 C   0  0  0  0  0  0  0  0  0  0  0  0
    6.8297   22.6123   29.1433 C   0  0  0  0  0  0  0  0  0  0  0  0
    7.9985   22.0407   29.6304 C   0  0  0  0  0  0  0  0  0  0  0  0
    8.8625   21.3936   28.7666 C   0  0  0  0  0  0  0  0  0  0  0  0
   10.9293   21.6588   29.9185 C   0  0  0  0  0  0  0  0  0  0  0  0
   11.9342   21.0591   30.6465 C   0  0  0  0  0  0  0  0  0  0  0  0
   12.8565   21.8712   31.2701 C   0  0  0  0  0  0  0  0  0  0  0  0
   12.7956   23.2422   31.1823 C   0  0  0  0  0  0  0  0  0  0  0  0
   11.7792   23.8167   30.4469 C   0  0  0  0  0  0  0  0  0  0  0  0
   10.8390   23.0198   29.8103 C   0  0  0  0  0  0  0  0  0  0  0  0
    5.4812   24.5902   21.5801 N   0  0  0  0  0  0  0  0  0  0  0  0
    5.0935   26.1901   19.8716 N   0  0  0  0  0  0  0  0  0  0  0  0
    5.6865   25.5715   18.8495 N   0  0  0  0  0  0  0  0  0  0  0  0
    4.2803   26.4705   22.1026 N   0  0  0  0  0  0  0  0  0  0  0  0
    5.4789   23.5388   25.8648 N   0  0  0  0  0  0  0  0  0  0  0  0
    3.5008   24.6319   25.7757 O   0  0  0  0  0  0  0  0  0  0  0  0
    3.5072   26.7668   24.1654 O   0  0  0  0  0  0  0  0  0  0  0  0
   10.0044   20.8445   29.2930 O   0  0  0  0  0  0  0  0  0  0  0  0
  1  2  1  0
 26  1  1  0
  1 27  2  0
  2  3  2  0
  2  8  1  0
  3 22  1  0
 22  4  2  0
  4 23  1  0
 25  4  1  0
  6  5  1  0
  5 24  2  0
  7  6  2  0
 23  7  1  0
  8 25  1  0
  8 28  2  0
 10  9  1  0
  9 26  1  6
 11 10  2  0
 13 10  1  0
 12 11  1  0
 15 12  2  0
 14 13  2  0
 15 14  1  0
 29 15  1  0
 16 17  2  0
 16 21  1  0
 16 29  1  0
 17 18  1  0
 18 19  2  0
 19 20  1  0
 20 21  2  0
 23 24  1  0
M  END
$$$$
