
     RDKit          3D

 29 32  0  0  0  0  0  0  0  0999 V2000
    4.4608   24.5887   24.4641 C   0  0  0  0  0  0  0  0  0  0  0  0
    5.1491   24.6884   25.7261 C   0  0  0  0  0  0  0  0  0  0  0  0
    4.4529   24.2832   26.8720 C   0  0  0  0  0  0  0  0  0  0  0  0
    6.2970   24.8043   28.2344 C   0  0  0  0  0  0  0  0  0  0  0  0
    7.1685   24.9017   31.7170 C   0  0  0  0  0  0  0  0  0  0  0  0
    8.4182   25.0101   31.1575 C   0  0  0  0  0  0  0  0  0  0  0  0
    8.2114   24.9840   29.7951 C   0  0  0  0  0  0  0  0  0  0  0  0
    6.4185   25.1456   25.8781 C   0  0  0  0  0  0  0  0  0  0  0  0
    4.3764   23.2548   22.3228 C   0  0  0  0  0  0  0  0  0  0  0  0
    4.8294   21.8801   22.0285 C   0  0  0  0  0  0  0  0  0  0  0  0
    4.6710   20.8606   22.9837 C   0  0  0  0  0  0  0  0  0  0  0  0
    5.1120   19.5849   22.7193 C   0  0  0  0  0  0  0  0  0  0  0  0
    5.4374   21.5173   20.8532 C   0  0  0  0  0  0  0  0  0  0  0  0
    5.8857   20.2162   20.5862 C   0  0  0  0  0  0  0  0  0  0  0  0
    5.7195   19.2341   21.5366 C   0  0  0  0  0  0  0  0  0  0  0  0
    6.6874   17.5980   20.0705 C   0  0  0  0  0  0  0  0  0  0  0  0
    6.0518   16.7318   19.1857 C   0  0  0  0  0  0  0  0  0  0  0  0
    6.6079   16.4149   17.9718 C   0  0  0  0  0  0  0  0  0  0  0  0
    7.8115   16.9409   17.5860 C   0  0  0  0  0  0  0  0  0  0  0  0
    8.4701   17.8008   18.4333 C   0  0  0  0  0  0  0  0  0  0  0  0
    7.8978   18.1143   19.6592 C   0  0  0  0  0  0  0  0  0  0  0  0
    5.0440   24.3534   28.0800 N   0  0  0  0  0  0  0  0  0  0  0  0
    6.8949   24.8651   29.5392 N   0  0  0  0  0  0  0  0  0  0  0  0
    6.2879   24.8175   30.7074 N   0  0  0  0  0  0  0  0  0  0  0  0
    6.9552   25.1890   27.1374 N   0  0  0  0  0  0  0  0  0  0  0  0
    4.1495   23.4079   23.7626 N   0  0  0  0  0  0  0  0  0  0  0  0
    4.0676   25.6622   23.8732 O   0  0  0  0  0  0  0  0  0  0  0  0
    7.0966   25.5234   24.8960 O   0  0  0  0  0  0  0  0  0  0  0  0
    6.1515   17.9378   21.3042 O   0  0  0  0  0  0  0  0  0  0  0  0
  1  2  1  0
 26  1  1  0
  1 27  2  0
  2  3  2  0
  2  8  1  0
  3 22  1  0
 22  4  2  0
  4 23  1  0
 25  4  1  0
  6  5  1  0
  5 24  2  0
  7  6  2  0
 23  7  1  0
  8 25  1  0
  8 28  2  0
 10  9  1  0
  9 26  1  0
 11 10  2  0
 13 10  1  0
 12 11  1  0
 15 12  2  0
 14 13  2  0
 15 14  1  0
 29 15  1  0
 16 17  2  0
 16 21  1  0
 16 29  1  0
 17 18  1  0
 18 19  2  0
 19 20  1  0
 20 21  2  0
 23 24  1  0
M  END
$$$$
