
     RDKit          3D

 29 32  0  0  0  0  0  0  0  0999 V2000
    4.4320   24.4037   25.3526 C   0  0  0  0  0  0  0  0  0  0  0  0
    4.5224   24.8411   23.9827 C   0  0  0  0  0  0  0  0  0  0  0  0
    5.4487   24.1886   23.1591 C   0  0  0  0  0  0  0  0  0  0  0  0
    4.8430   25.5361   21.3299 C   0  0  0  0  0  0  0  0  0  0  0  0
    5.7381   25.9830   17.8808 C   0  0  0  0  0  0  0  0  0  0  0  0
    4.7284   26.9084   17.9848 C   0  0  0  0  0  0  0  0  0  0  0  0
    4.2947   26.8298   19.2907 C   0  0  0  0  0  0  0  0  0  0  0  0
    3.7753   25.8365   23.4401 C   0  0  0  0  0  0  0  0  0  0  0  0
    5.2723   23.4040   27.5127 C   0  0  0  0  0  0  0  0  0  0  0  0
    6.5755   23.0014   28.0797 C   0  0  0  0  0  0  0  0  0  0  0  0
    7.7730   23.4152   27.4703 C   0  0  0  0  0  0  0  0  0  0  0  0
    8.9870   23.0233   27.9846 C   0  0  0  0  0  0  0  0  0  0  0  0
    6.7063   22.2036   29.1882 C   0  0  0  0  0  0  0  0  0  0  0  0
    7.9449   21.8058   29.7106 C   0  0  0  0  0  0  0  0  0  0  0  0
    9.1044   22.2236   29.0971 C   0  0  0  0  0  0  0  0  0  0  0  0
   10.9255   20.6611   29.1660 C   0  0  0  0  0  0  0  0  0  0  0  0
   12.1682   20.2274   29.6186 C   0  0  0  0  0  0  0  0  0  0  0  0
   12.7163   19.0475   29.1819 C   0  0  0  0  0  0  0  0  0  0  0  0
   12.0586   18.2519   28.2825 C   0  0  0  0  0  0  0  0  0  0  0  0
   10.8282   18.6467   27.8121 C   0  0  0  0  0  0  0  0  0  0  0  0
   10.2834   19.8427   28.2611 C   0  0  0  0  0  0  0  0  0  0  0  0
    5.5786   24.5537   21.8694 N   0  0  0  0  0  0  0  0  0  0  0  0
    5.0093   25.8983   19.9498 N   0  0  0  0  0  0  0  0  0  0  0  0
    5.8698   25.4029   19.0841 N   0  0  0  0  0  0  0  0  0  0  0  0
    3.9615   26.1540   22.1209 N   0  0  0  0  0  0  0  0  0  0  0  0
    5.4270   23.7376   26.0940 N   0  0  0  0  0  0  0  0  0  0  0  0
    3.3495   24.6196   26.0140 O   0  0  0  0  0  0  0  0  0  0  0  0
    2.9293   26.4605   24.1201 O   0  0  0  0  0  0  0  0  0  0  0  0
   10.3450   21.8482   29.5881 O   0  0  0  0  0  0  0  0  0  0  0  0
  1  2  1  0
 26  1  1  0
  1 27  2  0
  2  3  2  0
  2  8  1  0
  3 22  1  0
 22  4  2  0
  4 23  1  0
 25  4  1  0
  6  5  1  0
  5 24  2  0
  7  6  2  0
 23  7  1  0
  8 25  1  0
  8 28  2  0
 10  9  1  0
  9 26  1  0
 11 10  2  0
 13 10  1  0
 12 11  1  0
 15 12  2  0
 14 13  2  0
 15 14  1  0
 29 15  1  0
 16 17  2  0
 16 21  1  0
 16 29  1  0
 17 18  1  0
 18 19  2  0
 19 20  1  0
 20 21  2  0
 23 24  1  0
M  END
$$$$
