
     RDKit          3D

 29 32  0  0  0  0  0  0  0  0999 V2000
    4.0901   24.8939   23.6121 C   0  0  0  0  0  0  0  0  0  0  0  0
    4.6463   24.4665   24.8708 C   0  0  0  0  0  0  0  0  0  0  0  0
    5.2640   23.2098   24.9072 C   0  0  0  0  0  0  0  0  0  0  0  0
    5.7701   23.4721   27.1884 C   0  0  0  0  0  0  0  0  0  0  0  0
    7.1984   21.5938   29.8956 C   0  0  0  0  0  0  0  0  0  0  0  0
    7.2214   22.8530   30.4435 C   0  0  0  0  0  0  0  0  0  0  0  0
    6.6870   23.6802   29.4794 C   0  0  0  0  0  0  0  0  0  0  0  0
    4.6120   25.1948   26.0161 C   0  0  0  0  0  0  0  0  0  0  0  0
    4.0450   25.2512   21.1137 C   0  0  0  0  0  0  0  0  0  0  0  0
    4.9494   25.0435   19.9646 C   0  0  0  0  0  0  0  0  0  0  0  0
    5.9375   24.0444   20.0104 C   0  0  0  0  0  0  0  0  0  0  0  0
    6.7945   23.8642   18.9497 C   0  0  0  0  0  0  0  0  0  0  0  0
    4.9074   25.7994   18.8202 C   0  0  0  0  0  0  0  0  0  0  0  0
    5.7818   25.6134   17.7404 C   0  0  0  0  0  0  0  0  0  0  0  0
    6.7414   24.6284   17.8077 C   0  0  0  0  0  0  0  0  0  0  0  0
    7.8537   23.1309   16.2968 C   0  0  0  0  0  0  0  0  0  0  0  0
    6.8363   22.3008   15.8352 C   0  0  0  0  0  0  0  0  0  0  0  0
    7.0982   21.0310   15.3854 C   0  0  0  0  0  0  0  0  0  0  0  0
    8.3735   20.5333   15.3743 C   0  0  0  0  0  0  0  0  0  0  0  0
    9.4058   21.3236   15.8227 C   0  0  0  0  0  0  0  0  0  0  0  0
    9.1287   22.6069   16.2756 C   0  0  0  0  0  0  0  0  0  0  0  0
    5.8019   22.7561   26.0554 N   0  0  0  0  0  0  0  0  0  0  0  0
    6.3545   22.9553   28.3946 N   0  0  0  0  0  0  0  0  0  0  0  0
    6.6702   21.7056   28.6666 N   0  0  0  0  0  0  0  0  0  0  0  0
    5.1795   24.6696   27.1465 N   0  0  0  0  0  0  0  0  0  0  0  0
    4.6644   24.7323   22.3364 N   0  0  0  0  0  0  0  0  0  0  0  0
    2.9504   25.4913   23.5961 O   0  0  0  0  0  0  0  0  0  0  0  0
    4.0756   26.3254   26.0530 O   0  0  0  0  0  0  0  0  0  0  0  0
    7.6214   24.4185   16.7577 O   0  0  0  0  0  0  0  0  0  0  0  0
  1  2  1  0
 26  1  1  0
  1 27  2  0
  2  3  2  0
  2  8  1  0
  3 22  1  0
 22  4  2  0
  4 23  1  0
 25  4  1  0
  6  5  1  0
  5 24  2  0
  7  6  2  0
 23  7  1  0
  8 25  1  0
  8 28  2  0
 10  9  1  0
  9 26  1  0
 11 10  2  0
 13 10  1  0
 12 11  1  0
 15 12  2  0
 14 13  2  0
 15 14  1  0
 29 15  1  0
 16 17  2  0
 16 21  1  0
 16 29  1  0
 17 18  1  0
 18 19  2  0
 19 20  1  0
 20 21  2  0
 23 24  1  0
M  END
$$$$
