
     RDKit          3D

 29 32  0  0  0  0  0  0  0  0999 V2000
    4.3680   23.9147   25.3931 C   0  0  0  0  0  0  0  0  0  0  0  0
    4.4574   24.3836   24.0376 C   0  0  0  0  0  0  0  0  0  0  0  0
    5.0603   23.5830   23.0601 C   0  0  0  0  0  0  0  0  0  0  0  0
    4.6706   25.2086   21.4094 C   0  0  0  0  0  0  0  0  0  0  0  0
    5.2668   25.6340   17.9109 C   0  0  0  0  0  0  0  0  0  0  0  0
    4.6426   26.8298   18.2092 C   0  0  0  0  0  0  0  0  0  0  0  0
    4.3629   26.7804   19.5427 C   0  0  0  0  0  0  0  0  0  0  0  0
    3.9854   25.5886   23.6120 C   0  0  0  0  0  0  0  0  0  0  0  0
    5.4338   21.7456   26.1843 C   0  0  0  0  0  0  0  0  0  0  0  0
    6.3154   22.2768   27.2412 C   0  0  0  0  0  0  0  0  0  0  0  0
    7.6009   21.7770   27.3056 C   0  0  0  0  0  0  0  0  0  0  0  0
    8.4758   22.2390   28.2607 C   0  0  0  0  0  0  0  0  0  0  0  0
    5.8861   23.2252   28.1069 C   0  0  0  0  0  0  0  0  0  0  0  0
    6.7606   23.6998   29.0765 C   0  0  0  0  0  0  0  0  0  0  0  0
    8.0490   23.2033   29.1464 C   0  0  0  0  0  0  0  0  0  0  0  0
    9.9826   22.9739   30.5167 C   0  0  0  0  0  0  0  0  0  0  0  0
   10.9634   23.6232   31.2350 C   0  0  0  0  0  0  0  0  0  0  0  0
   12.0659   22.8971   31.6303 C   0  0  0  0  0  0  0  0  0  0  0  0
   12.2047   21.5627   31.3282 C   0  0  0  0  0  0  0  0  0  0  0  0
   11.2078   20.9371   30.6078 C   0  0  0  0  0  0  0  0  0  0  0  0
   10.0886   21.6473   30.1989 C   0  0  0  0  0  0  0  0  0  0  0  0
    5.1413   24.0258   21.7952 N   0  0  0  0  0  0  0  0  0  0  0  0
    4.7924   25.6053   20.0596 N   0  0  0  0  0  0  0  0  0  0  0  0
    5.3346   24.9376   19.0401 N   0  0  0  0  0  0  0  0  0  0  0  0
    4.0913   25.9958   22.3119 N   0  0  0  0  0  0  0  0  0  0  0  0
    4.3047   22.6014   25.8753 N   0  0  0  0  0  0  0  0  0  0  0  0
    4.3413   24.8215   26.3061 O   0  0  0  0  0  0  0  0  0  0  0  0
    3.4244   26.3954   24.3944 O   0  0  0  0  0  0  0  0  0  0  0  0
    8.8769   23.7020   30.1203 O   0  0  0  0  0  0  0  0  0  0  0  0
  1  2  1  0
 26  1  1  0
  1 27  2  0
  2  3  2  0
  2  8  1  0
  3 22  1  0
 22  4  2  0
  4 23  1  0
 25  4  1  0
  6  5  1  0
  5 24  2  0
  7  6  2  0
 23  7  1  0
  8 25  1  0
  8 28  2  0
 10  9  1  0
  9 26  1  6
 11 10  2  0
 13 10  1  0
 12 11  1  0
 15 12  2  0
 14 13  2  0
 15 14  1  0
 29 15  1  0
 16 17  2  0
 16 21  1  0
 16 29  1  0
 17 18  1  0
 18 19  2  0
 19 20  1  0
 20 21  2  0
 23 24  1  0
M  END
$$$$
