
     RDKit          3D

 29 32  0  0  0  0  0  0  0  0999 V2000
    4.1743   25.0465   24.3777 C   0  0  0  0  0  0  0  0  0  0  0  0
    4.8694   24.5078   25.5143 C   0  0  0  0  0  0  0  0  0  0  0  0
    5.6998   23.3913   25.3602 C   0  0  0  0  0  0  0  0  0  0  0  0
    6.2414   23.4095   27.6461 C   0  0  0  0  0  0  0  0  0  0  0  0
    8.1099   21.4277   29.9607 C   0  0  0  0  0  0  0  0  0  0  0  0
    7.9072   22.5701   30.7106 C   0  0  0  0  0  0  0  0  0  0  0  0
    7.1911   23.4146   29.9150 C   0  0  0  0  0  0  0  0  0  0  0  0
    4.7818   25.0149   26.7757 C   0  0  0  0  0  0  0  0  0  0  0  0
    3.8343   25.6625   21.9339 C   0  0  0  0  0  0  0  0  0  0  0  0
    4.4590   25.3787   20.6279 C   0  0  0  0  0  0  0  0  0  0  0  0
    5.1974   24.2172   20.5170 C   0  0  0  0  0  0  0  0  0  0  0  0
    5.7960   23.8893   19.3231 C   0  0  0  0  0  0  0  0  0  0  0  0
    4.3056   26.2170   19.5758 C   0  0  0  0  0  0  0  0  0  0  0  0
    4.9057   25.8968   18.3644 C   0  0  0  0  0  0  0  0  0  0  0  0
    5.6465   24.7354   18.2468 C   0  0  0  0  0  0  0  0  0  0  0  0
    6.7433   23.2045   16.7900 C   0  0  0  0  0  0  0  0  0  0  0  0
    5.8878   22.1251   16.8407 C   0  0  0  0  0  0  0  0  0  0  0  0
    6.4093   20.8724   16.6001 C   0  0  0  0  0  0  0  0  0  0  0  0
    7.7411   20.6812   16.3158 C   0  0  0  0  0  0  0  0  0  0  0  0
    8.5756   21.7791   16.2713 C   0  0  0  0  0  0  0  0  0  0  0  0
    8.0737   23.0501   16.5101 C   0  0  0  0  0  0  0  0  0  0  0  0
    6.3469   22.8919   26.4253 N   0  0  0  0  0  0  0  0  0  0  0  0
    6.9542   22.8287   28.7179 N   0  0  0  0  0  0  0  0  0  0  0  0
    7.5265   21.6256   28.7838 N   0  0  0  0  0  0  0  0  0  0  0  0
    5.4608   24.4711   27.8295 N   0  0  0  0  0  0  0  0  0  0  0  0
    4.6342   25.2490   23.0706 N   0  0  0  0  0  0  0  0  0  0  0  0
    2.9518   25.3976   24.5749 O   0  0  0  0  0  0  0  0  0  0  0  0
    4.0692   26.0147   27.0410 O   0  0  0  0  0  0  0  0  0  0  0  0
    6.2204   24.4607   17.0312 O   0  0  0  0  0  0  0  0  0  0  0  0
  1  2  1  0
 26  1  1  0
  1 27  2  0
  2  3  2  0
  2  8  1  0
  3 22  1  0
 22  4  2  0
  4 23  1  0
 25  4  1  0
  6  5  1  0
  5 24  2  0
  7  6  2  0
 23  7  1  0
  8 25  1  0
  8 28  2  0
 10  9  1  0
  9 26  1  6
 11 10  2  0
 13 10  1  0
 12 11  1  0
 15 12  2  0
 14 13  2  0
 15 14  1  0
 29 15  1  0
 16 17  2  0
 16 21  1  0
 16 29  1  0
 17 18  1  0
 18 19  2  0
 19 20  1  0
 20 21  2  0
 23 24  1  0
M  END
$$$$
