
     RDKit          3D

 29 32  0  0  0  0  0  0  0  0999 V2000
    4.4079   24.7904   22.0442 C   0  0  0  0  0  0  0  0  0  0  0  0
    4.2425   25.0973   23.4423 C   0  0  0  0  0  0  0  0  0  0  0  0
    4.5939   24.1035   24.3647 C   0  0  0  0  0  0  0  0  0  0  0  0
    3.9968   25.4951   26.1634 C   0  0  0  0  0  0  0  0  0  0  0  0
    3.8151   25.3672   29.7478 C   0  0  0  0  0  0  0  0  0  0  0  0
    3.5365   26.6967   29.5443 C   0  0  0  0  0  0  0  0  0  0  0  0
    3.5779   26.8731   28.1780 C   0  0  0  0  0  0  0  0  0  0  0  0
    3.7719   26.2769   23.9225 C   0  0  0  0  0  0  0  0  0  0  0  0
    5.0033   22.4936   21.1829 C   0  0  0  0  0  0  0  0  0  0  0  0
    6.0676   21.6060   21.6938 C   0  0  0  0  0  0  0  0  0  0  0  0
    7.2555   22.1487   22.2145 C   0  0  0  0  0  0  0  0  0  0  0  0
    8.2564   21.3228   22.6707 C   0  0  0  0  0  0  0  0  0  0  0  0
    5.9864   20.2364   21.6758 C   0  0  0  0  0  0  0  0  0  0  0  0
    7.0079   19.3969   22.1417 C   0  0  0  0  0  0  0  0  0  0  0  0
    8.1622   19.9511   22.6476 C   0  0  0  0  0  0  0  0  0  0  0  0
    9.0145   18.4025   24.2718 C   0  0  0  0  0  0  0  0  0  0  0  0
   10.0764   17.8457   24.9787 C   0  0  0  0  0  0  0  0  0  0  0  0
    9.8692   17.1113   26.1193 C   0  0  0  0  0  0  0  0  0  0  0  0
    8.6067   16.8990   26.6045 C   0  0  0  0  0  0  0  0  0  0  0  0
    7.5317   17.4331   25.9336 C   0  0  0  0  0  0  0  0  0  0  0  0
    7.7535   18.1746   24.7805 C   0  0  0  0  0  0  0  0  0  0  0  0
    4.4611   24.3319   25.6852 N   0  0  0  0  0  0  0  0  0  0  0  0
    3.8686   25.7028   27.5790 N   0  0  0  0  0  0  0  0  0  0  0  0
    4.0069   24.8128   28.5404 N   0  0  0  0  0  0  0  0  0  0  0  0
    3.6636   26.4386   25.2782 N   0  0  0  0  0  0  0  0  0  0  0  0
    5.3328   23.8903   21.4806 N   0  0  0  0  0  0  0  0  0  0  0  0
    3.6563   25.3728   21.1770 O   0  0  0  0  0  0  0  0  0  0  0  0
    3.4398   27.2071   23.1533 O   0  0  0  0  0  0  0  0  0  0  0  0
    9.1911   19.1493   23.1162 O   0  0  0  0  0  0  0  0  0  0  0  0
  1  2  1  0
 26  1  1  0
  1 27  2  0
  2  3  2  0
  2  8  1  0
  3 22  1  0
 22  4  2  0
  4 23  1  0
 25  4  1  0
  6  5  1  0
  5 24  2  0
  7  6  2  0
 23  7  1  0
  8 25  1  0
  8 28  2  0
 10  9  1  0
  9 26  1  0
 11 10  2  0
 13 10  1  0
 12 11  1  0
 15 12  2  0
 14 13  2  0
 15 14  1  0
 29 15  1  0
 16 17  2  0
 16 21  1  0
 16 29  1  0
 17 18  1  0
 18 19  2  0
 19 20  1  0
 20 21  2  0
 23 24  1  0
M  END
$$$$
