
     RDKit          3D

 29 32  0  0  0  0  0  0  0  0999 V2000
    3.6581   22.8334   25.3505 C   0  0  0  0  0  0  0  0  0  0  0  0
    3.9426   23.5707   24.1503 C   0  0  0  0  0  0  0  0  0  0  0  0
    4.3041   22.8899   22.9816 C   0  0  0  0  0  0  0  0  0  0  0  0
    4.5061   24.9108   21.8008 C   0  0  0  0  0  0  0  0  0  0  0  0
    5.2220   25.9840   18.4673 C   0  0  0  0  0  0  0  0  0  0  0  0
    5.2477   27.1935   19.1344 C   0  0  0  0  0  0  0  0  0  0  0  0
    4.9827   26.9035   20.4400 C   0  0  0  0  0  0  0  0  0  0  0  0
    3.8870   24.9286   24.0551 C   0  0  0  0  0  0  0  0  0  0  0  0
    5.9745   22.1861   26.1764 C   0  0  0  0  0  0  0  0  0  0  0  0
    6.7329   22.4352   27.4171 C   0  0  0  0  0  0  0  0  0  0  0  0
    7.6381   21.4701   27.8119 C   0  0  0  0  0  0  0  0  0  0  0  0
    8.3845   21.6472   28.9532 C   0  0  0  0  0  0  0  0  0  0  0  0
    6.5578   23.5699   28.1347 C   0  0  0  0  0  0  0  0  0  0  0  0
    7.3060   23.7603   29.2898 C   0  0  0  0  0  0  0  0  0  0  0  0
    8.2138   22.7977   29.6907 C   0  0  0  0  0  0  0  0  0  0  0  0
   10.2885   22.7763   30.8587 C   0  0  0  0  0  0  0  0  0  0  0  0
   11.0361   23.1564   29.7650 C   0  0  0  0  0  0  0  0  0  0  0  0
   12.3907   22.9041   29.7860 C   0  0  0  0  0  0  0  0  0  0  0  0
   13.0002   22.2921   30.8561 C   0  0  0  0  0  0  0  0  0  0  0  0
   12.2282   21.9217   31.9382 C   0  0  0  0  0  0  0  0  0  0  0  0
   10.8626   22.1654   31.9400 C   0  0  0  0  0  0  0  0  0  0  0  0
    4.5690   23.5836   21.8630 N   0  0  0  0  0  0  0  0  0  0  0  0
    4.7986   25.5705   20.5869 N   0  0  0  0  0  0  0  0  0  0  0  0
    4.9515   25.0472   19.3696 N   0  0  0  0  0  0  0  0  0  0  0  0
    4.1658   25.5905   22.8926 N   0  0  0  0  0  0  0  0  0  0  0  0
    4.5405   22.3449   26.3220 N   0  0  0  0  0  0  0  0  0  0  0  0
    2.4173   22.5779   25.5781 O   0  0  0  0  0  0  0  0  0  0  0  0
    3.5750   25.6503   25.0346 O   0  0  0  0  0  0  0  0  0  0  0  0
    8.9301   23.0293   30.8378 O   0  0  0  0  0  0  0  0  0  0  0  0
  1  2  1  0
 26  1  1  0
  1 27  2  0
  2  3  2  0
  2  8  1  0
  3 22  1  0
 22  4  2  0
  4 23  1  0
 25  4  1  0
  6  5  1  0
  5 24  2  0
  7  6  2  0
 23  7  1  0
  8 25  1  0
  8 28  2  0
 10  9  1  0
  9 26  1  6
 11 10  2  0
 13 10  1  0
 12 11  1  0
 15 12  2  0
 14 13  2  0
 15 14  1  0
 29 15  1  0
 16 17  2  0
 16 21  1  0
 16 29  1  0
 17 18  1  0
 18 19  2  0
 19 20  1  0
 20 21  2  0
 23 24  1  0
M  END
$$$$
