
     RDKit          3D

 29 32  0  0  0  0  0  0  0  0999 V2000
    4.3028   23.5661   24.8101 C   0  0  0  0  0  0  0  0  0  0  0  0
    5.1175   23.2395   25.9479 C   0  0  0  0  0  0  0  0  0  0  0  0
    5.9450   22.1107   25.9133 C   0  0  0  0  0  0  0  0  0  0  0  0
    6.7150   22.5401   28.0909 C   0  0  0  0  0  0  0  0  0  0  0  0
    8.6379   22.1541   31.0791 C   0  0  0  0  0  0  0  0  0  0  0  0
    8.9220   20.9633   30.4389 C   0  0  0  0  0  0  0  0  0  0  0  0
    8.2301   20.9984   29.2647 C   0  0  0  0  0  0  0  0  0  0  0  0
    5.1506   23.9666   27.0994 C   0  0  0  0  0  0  0  0  0  0  0  0
    3.8155   24.3543   22.4418 C   0  0  0  0  0  0  0  0  0  0  0  0
    4.5276   24.8814   21.2622 C   0  0  0  0  0  0  0  0  0  0  0  0
    5.5225   25.8125   21.4855 C   0  0  0  0  0  0  0  0  0  0  0  0
    6.2315   26.3342   20.4291 C   0  0  0  0  0  0  0  0  0  0  0  0
    4.2265   24.4612   20.0108 C   0  0  0  0  0  0  0  0  0  0  0  0
    4.9357   24.9812   18.9352 C   0  0  0  0  0  0  0  0  0  0  0  0
    5.9329   25.9138   19.1521 C   0  0  0  0  0  0  0  0  0  0  0  0
    6.1560   26.0960   16.7886 C   0  0  0  0  0  0  0  0  0  0  0  0
    6.9823   25.3614   15.9658 C   0  0  0  0  0  0  0  0  0  0  0  0
    6.5333   25.0591   14.6984 C   0  0  0  0  0  0  0  0  0  0  0  0
    5.3004   25.4680   14.2467 C   0  0  0  0  0  0  0  0  0  0  0  0
    4.4931   26.2023   15.0911 C   0  0  0  0  0  0  0  0  0  0  0  0
    4.9235   26.5188   16.3713 C   0  0  0  0  0  0  0  0  0  0  0  0
    6.7042   21.8099   26.9790 N   0  0  0  0  0  0  0  0  0  0  0  0
    7.5415   22.1601   29.1711 N   0  0  0  0  0  0  0  0  0  0  0  0
    7.8139   22.8340   30.2894 N   0  0  0  0  0  0  0  0  0  0  0  0
    5.9410   23.6199   28.1588 N   0  0  0  0  0  0  0  0  0  0  0  0
    4.6921   23.9198   23.5122 N   0  0  0  0  0  0  0  0  0  0  0  0
    3.0296   23.5328   24.9961 O   0  0  0  0  0  0  0  0  0  0  0  0
    4.4534   25.0002   27.2519 O   0  0  0  0  0  0  0  0  0  0  0  0
    6.6062   26.3991   18.0595 O   0  0  0  0  0  0  0  0  0  0  0  0
  1  2  1  0
 26  1  1  0
  1 27  2  0
  2  3  2  0
  2  8  1  0
  3 22  1  0
 22  4  2  0
  4 23  1  0
 25  4  1  0
  6  5  1  0
  5 24  2  0
  7  6  2  0
 23  7  1  0
  8 25  1  0
  8 28  2  0
 10  9  1  0
  9 26  1  6
 11 10  2  0
 13 10  1  0
 12 11  1  0
 15 12  2  0
 14 13  2  0
 15 14  1  0
 29 15  1  0
 16 17  2  0
 16 21  1  0
 16 29  1  0
 17 18  1  0
 18 19  2  0
 19 20  1  0
 20 21  2  0
 23 24  1  0
M  END
$$$$
