
     RDKit          3D

 29 32  0  0  0  0  0  0  0  0999 V2000
    4.6741   23.4319   25.1658 C   0  0  0  0  0  0  0  0  0  0  0  0
    4.6590   24.0168   23.8532 C   0  0  0  0  0  0  0  0  0  0  0  0
    5.3009   23.3675   22.7919 C   0  0  0  0  0  0  0  0  0  0  0  0
    4.6781   25.0718   21.2998 C   0  0  0  0  0  0  0  0  0  0  0  0
    5.1062   25.8564   17.8389 C   0  0  0  0  0  0  0  0  0  0  0  0
    4.3257   26.9212   18.2459 C   0  0  0  0  0  0  0  0  0  0  0  0
    4.0944   26.7257   19.5753 C   0  0  0  0  0  0  0  0  0  0  0  0
    4.0480   25.1954   23.5477 C   0  0  0  0  0  0  0  0  0  0  0  0
    5.7449   22.5267   27.2874 C   0  0  0  0  0  0  0  0  0  0  0  0
    6.9898   22.8752   27.9982 C   0  0  0  0  0  0  0  0  0  0  0  0
    7.1153   22.4468   29.3049 C   0  0  0  0  0  0  0  0  0  0  0  0
    8.2560   22.7293   30.0191 C   0  0  0  0  0  0  0  0  0  0  0  0
    7.9757   23.5770   27.3911 C   0  0  0  0  0  0  0  0  0  0  0  0
    9.1330   23.8688   28.1023 C   0  0  0  0  0  0  0  0  0  0  0  0
    9.2648   23.4429   29.4109 C   0  0  0  0  0  0  0  0  0  0  0  0
   11.0690   22.7848   30.8183 C   0  0  0  0  0  0  0  0  0  0  0  0
   11.7813   23.1856   31.9279 C   0  0  0  0  0  0  0  0  0  0  0  0
   12.4232   22.2185   32.6707 C   0  0  0  0  0  0  0  0  0  0  0  0
   12.3684   20.8865   32.3334 C   0  0  0  0  0  0  0  0  0  0  0  0
   11.6482   20.5125   31.2174 C   0  0  0  0  0  0  0  0  0  0  0  0
   10.9937   21.4680   30.4540 C   0  0  0  0  0  0  0  0  0  0  0  0
    5.2839   23.9182   21.5676 N   0  0  0  0  0  0  0  0  0  0  0  0
    4.7028   25.5881   19.9856 N   0  0  0  0  0  0  0  0  0  0  0  0
    5.3056   25.0896   18.9053 N   0  0  0  0  0  0  0  0  0  0  0  0
    4.0579   25.7164   22.2845 N   0  0  0  0  0  0  0  0  0  0  0  0
    5.7479   22.8907   25.8837 N   0  0  0  0  0  0  0  0  0  0  0  0
    3.5449   23.3931   25.7822 O   0  0  0  0  0  0  0  0  0  0  0  0
    3.4391   25.8713   24.4138 O   0  0  0  0  0  0  0  0  0  0  0  0
   10.4252   23.7545   30.0733 O   0  0  0  0  0  0  0  0  0  0  0  0
  1  2  1  0
 26  1  1  0
  1 27  2  0
  2  3  2  0
  2  8  1  0
  3 22  1  0
 22  4  2  0
  4 23  1  0
 25  4  1  0
  6  5  1  0
  5 24  2  0
  7  6  2  0
 23  7  1  0
  8 25  1  0
  8 28  2  0
 10  9  1  0
  9 26  1  6
 11 10  2  0
 13 10  1  0
 12 11  1  0
 15 12  2  0
 14 13  2  0
 15 14  1  0
 29 15  1  0
 16 17  2  0
 16 21  1  0
 16 29  1  0
 17 18  1  0
 18 19  2  0
 19 20  1  0
 20 21  2  0
 23 24  1  0
M  END
$$$$
