
     RDKit          3D

 33 37  0  0  0  0  0  0  0  0999 V2000
    5.8563  -66.3306   19.1350 N   0  0  0  0  0  4  0  0  0  0  0  0
    5.2409  -65.0051   19.3077 C   0  0  0  0  0  0  0  0  0  0  0  0
    5.4364  -64.2426   18.0480 C   0  0  0  0  0  0  0  0  0  0  0  0
    6.2659  -63.1488   18.0420 C   0  0  0  0  0  0  0  0  0  0  0  0
    6.4669  -62.4162   16.8724 C   0  0  0  0  0  0  0  0  0  0  0  0
    5.8464  -62.7609   15.6936 C   0  0  0  0  0  0  0  0  0  0  0  0
    5.0210  -63.8620   15.7316 C   0  0  0  0  0  0  0  0  0  0  0  0
    4.8087  -64.6000   16.8777 C   0  0  0  0  0  0  0  0  0  0  0  0
    6.1016  -61.9557   14.5102 C   0  0  0  0  0  0  0  0  0  0  0  0
    7.3865  -61.8404   13.9821 C   0  0  0  0  0  0  0  0  0  0  0  0
    8.4330  -62.5664   14.6855 C   0  0  0  0  0  0  0  0  0  0  0  0
    8.3983  -63.9277   14.8561 C   0  0  0  0  0  0  0  0  0  0  0  0
    9.4351  -64.5644   15.5431 C   0  0  0  0  0  0  0  0  0  0  0  0
   10.4971  -63.8498   16.0555 C   0  0  0  0  0  0  0  0  0  0  0  0
   11.6049  -64.4623   16.7802 C   0  0  0  0  0  0  0  0  0  0  0  0
   11.9308  -65.7971   16.7666 C   0  0  0  0  0  0  0  0  0  0  0  0
   12.9721  -66.0368   17.5147 O   0  0  0  0  0  0  0  0  0  0  0  0
   13.3541  -64.9086   18.0282 C   0  0  0  0  0  0  0  0  0  0  0  0
   12.5302  -63.8644   17.6044 C   0  0  0  0  0  0  0  0  0  0  0  0
   10.4963  -62.4856   15.8639 C   0  0  0  0  0  0  0  0  0  0  0  0
    9.4906  -61.8604   15.1964 C   0  0  0  0  0  0  0  0  0  0  0  0
    7.6271  -61.0980   12.8901 N   0  0  0  0  0  0  0  0  0  0  0  0
    6.6758  -60.4274   12.2393 C   0  0  0  0  0  0  0  0  0  0  0  0
    5.3835  -60.5476   12.7767 C   0  0  0  0  0  0  0  0  0  0  0  0
    5.1299  -61.2856   13.8664 N   0  0  0  0  0  0  0  0  0  0  0  0
    6.8510  -59.6466   11.1154 O   0  0  0  0  0  0  0  0  0  0  0  0
    6.3625  -60.0419    9.8813 C   0  0  0  0  0  0  0  0  0  0  0  0
    7.2064  -61.1406    9.3035 C   0  0  1  0  0  0  0  0  0  0  0  0
    6.3383  -61.9236    8.3225 C   0  0  0  0  0  0  0  0  0  0  0  0
    6.1348  -61.1639    7.0567 C   0  0  0  0  0  0  0  0  0  0  0  0
    7.3572  -60.9429    6.3611 N   0  0  0  0  0  4  0  0  0  0  0  0
    8.5015  -61.1880    7.1882 C   0  0  0  0  0  0  0  0  0  0  0  0
    8.3291  -60.4701    8.5081 C   0  0  0  0  0  0  0  0  0  0  0  0
  1  2  1  0
  2  3  1  0
  3  4  2  0
  3  8  1  0
  4  5  1  0
  5  6  2  0
  6  7  1  0
  6  9  1  0
  7  8  2  0
  9 10  1  0
  9 25  2  0
 10 11  1  0
 10 22  2  0
 11 12  2  0
 11 21  1  0
 12 13  1  0
 13 14  2  0
 14 15  1  0
 14 20  1  0
 15 16  2  0
 15 19  1  0
 16 17  1  0
 17 18  1  0
 18 19  2  0
 20 21  2  0
 22 23  1  0
 23 24  2  0
 23 26  1  0
 24 25  1  0
 26 27  1  0
 28 27  1  6
 28 29  1  0
 28 33  1  0
 29 30  1  0
 30 31  1  0
 31 32  1  0
 32 33  1  0
M  CHG  2   1   1  31   1
M  END
$$$$
