
     RDKit          3D

 33 37  0  0  0  0  0  0  0  0999 V2000
    2.0151  -58.9542   22.9869 N   0  0  0  0  0  4  0  0  0  0  0  0
    3.4673  -58.6397   22.8423 C   0  0  0  0  0  0  0  0  0  0  0  0
    3.8221  -58.7089   21.3830 C   0  0  0  0  0  0  0  0  0  0  0  0
    4.5928  -59.7686   20.9382 C   0  0  0  0  0  0  0  0  0  0  0  0
    4.9297  -59.8425   19.5753 C   0  0  0  0  0  0  0  0  0  0  0  0
    4.5022  -58.8800   18.6981 C   0  0  0  0  0  0  0  0  0  0  0  0
    3.7433  -57.8478   19.1703 C   0  0  0  0  0  0  0  0  0  0  0  0
    3.3942  -57.7507   20.5205 C   0  0  0  0  0  0  0  0  0  0  0  0
    4.8431  -58.9495   17.2975 C   0  0  0  0  0  0  0  0  0  0  0  0
    4.7495  -60.1535   16.6270 C   0  0  0  0  0  0  0  0  0  0  0  0
    4.3151  -61.3376   17.3351 C   0  0  0  0  0  0  0  0  0  0  0  0
    3.0999  -61.4002   17.9753 C   0  0  0  0  0  0  0  0  0  0  0  0
    2.6986  -62.5570   18.6531 C   0  0  0  0  0  0  0  0  0  0  0  0
    3.4950  -63.6607   18.7036 C   0  0  0  0  0  0  0  0  0  0  0  0
    3.0875  -64.8805   19.4090 C   0  0  0  0  0  0  0  0  0  0  0  0
    1.8498  -65.2356   19.8971 C   0  0  0  0  0  0  0  0  0  0  0  0
    1.9344  -66.4289   20.4654 O   0  0  0  0  0  0  0  0  0  0  0  0
    3.1533  -66.8982   20.3894 C   0  0  0  0  0  0  0  0  0  0  0  0
    3.9043  -65.9449   19.7286 C   0  0  0  0  0  0  0  0  0  0  0  0
    4.7269  -63.6025   18.0570 C   0  0  0  0  0  0  0  0  0  0  0  0
    5.1055  -62.4509   17.3926 C   0  0  0  0  0  0  0  0  0  0  0  0
    5.0782  -60.1674   15.3144 N   0  0  0  0  0  0  0  0  0  0  0  0
    5.4805  -59.0992   14.6465 C   0  0  0  0  0  0  0  0  0  0  0  0
    5.5761  -57.8969   15.3083 C   0  0  0  0  0  0  0  0  0  0  0  0
    5.2551  -57.8659   16.6048 N   0  0  0  0  0  0  0  0  0  0  0  0
    5.7970  -59.1944   13.3116 O   0  0  0  0  0  0  0  0  0  0  0  0
    5.8202  -60.3599   12.5461 C   0  0  0  0  0  0  0  0  0  0  0  0
    7.2013  -60.7635   12.1185 C   0  0  1  0  0  0  0  0  0  0  0  0
    7.2605  -62.1706   11.6133 C   0  0  0  0  0  0  0  0  0  0  0  0
    7.7477  -62.2381   10.1981 C   0  0  0  0  0  0  0  0  0  0  0  0
    6.9808  -61.3753    9.3184 N   0  0  0  0  0  4  0  0  0  0  0  0
    6.9015  -60.0315    9.8008 C   0  0  0  0  0  0  0  0  0  0  0  0
    7.7421  -59.8180   11.0423 C   0  0  0  0  0  0  0  0  0  0  0  0
  1  2  1  6
  2  3  1  6
  3  4  2  0
  3  8  1  0
  4  5  1  0
  5  6  2  0
  6  7  1  0
  6  9  1  0
  7  8  2  0
  9 10  1  0
  9 25  2  0
 10 11  1  0
 10 22  2  0
 11 12  2  0
 11 21  1  0
 12 13  1  0
 13 14  2  0
 14 15  1  0
 14 20  1  0
 15 16  2  0
 15 19  1  0
 16 17  1  0
 17 18  1  0
 18 19  2  0
 20 21  2  0
 22 23  1  0
 23 24  2  0
 23 26  1  0
 24 25  1  0
 27 26  1  1
 28 27  1  6
 29 28  1  1
 28 33  1  0
 30 29  1  1
 31 30  1  1
 32 31  1  1
 33 32  1  6
M  CHG  2   1   1  31   1
M  END
$$$$
