
     RDKit          3D

 33 37  0  0  0  0  0  0  0  0999 V2000
    0.5173  -58.2889   12.1948 N   0  0  0  0  0  4  0  0  0  0  0  0
    0.4014  -59.5190   12.9939 C   0  0  0  0  0  0  0  0  0  0  0  0
    1.7694  -60.0585   13.2039 C   0  0  0  0  0  0  0  0  0  0  0  0
    2.4759  -59.6924   14.3226 C   0  0  0  0  0  0  0  0  0  0  0  0
    3.7617  -60.1853   14.5434 C   0  0  0  0  0  0  0  0  0  0  0  0
    4.3623  -61.0483   13.6557 C   0  0  0  0  0  0  0  0  0  0  0  0
    3.6289  -61.3965   12.5440 C   0  0  0  0  0  0  0  0  0  0  0  0
    2.3559  -60.9203   12.3069 C   0  0  0  0  0  0  0  0  0  0  0  0
    5.7039  -61.5263   13.9478 C   0  0  0  0  0  0  0  0  0  0  0  0
    6.0097  -62.1034   15.1793 C   0  0  0  0  0  0  0  0  0  0  0  0
    4.9142  -62.1899   16.1330 C   0  0  0  0  0  0  0  0  0  0  0  0
    4.9902  -61.6519   17.3933 C   0  0  0  0  0  0  0  0  0  0  0  0
    3.9023  -61.7710   18.2619 C   0  0  0  0  0  0  0  0  0  0  0  0
    2.7488  -62.4210   17.8771 C   0  0  0  0  0  0  0  0  0  0  0  0
    1.5844  -62.5746   18.7422 C   0  0  0  0  0  0  0  0  0  0  0  0
    0.3648  -63.0806   18.3618 C   0  0  0  0  0  0  0  0  0  0  0  0
   -0.4748  -63.0902   19.3601 O   0  0  0  0  0  0  0  0  0  0  0  0
    0.1409  -62.6082   20.3949 C   0  0  0  0  0  0  0  0  0  0  0  0
    1.4543  -62.2594   20.0751 C   0  0  0  0  0  0  0  0  0  0  0  0
    2.7106  -62.9475   16.6047 C   0  0  0  0  0  0  0  0  0  0  0  0
    3.7657  -62.8349   15.7550 C   0  0  0  0  0  0  0  0  0  0  0  0
    7.2467  -62.5459   15.4537 N   0  0  0  0  0  0  0  0  0  0  0  0
    8.2580  -62.4696   14.5878 C   0  0  0  0  0  0  0  0  0  0  0  0
    7.9433  -61.8870   13.3489 C   0  0  0  0  0  0  0  0  0  0  0  0
    6.7122  -61.4413   13.0624 N   0  0  0  0  0  0  0  0  0  0  0  0
    9.5506  -62.9015   14.8023 O   0  0  0  0  0  0  0  0  0  0  0  0
   10.5707  -62.0078   15.0828 C   0  0  0  0  0  0  0  0  0  0  0  0
   11.7514  -62.7192   15.6769 C   0  0  1  0  0  0  0  0  0  0  0  0
   12.5873  -63.2701   14.5249 C   0  0  0  0  0  0  0  0  0  0  0  0
   13.3500  -62.1856   13.8447 C   0  0  0  0  0  0  0  0  0  0  0  0
   14.2939  -61.5675   14.7130 N   0  0  0  0  0  4  0  0  0  0  0  0
   14.0512  -61.8853   16.0891 C   0  0  0  0  0  0  0  0  0  0  0  0
   12.5886  -61.6644   16.4043 C   0  0  0  0  0  0  0  0  0  0  0  0
  1  2  1  0
  2  3  1  0
  3  4  2  0
  3  8  1  0
  4  5  1  0
  5  6  2  0
  6  7  1  0
  6  9  1  0
  7  8  2  0
  9 10  1  0
  9 25  2  0
 10 11  1  0
 10 22  2  0
 11 12  2  0
 11 21  1  0
 12 13  1  0
 13 14  2  0
 14 15  1  0
 14 20  1  0
 15 16  2  0
 15 19  1  0
 16 17  1  0
 17 18  1  0
 18 19  2  0
 20 21  2  0
 22 23  1  0
 23 24  2  0
 23 26  1  0
 24 25  1  0
 26 27  1  0
 28 27  1  6
 28 29  1  0
 28 33  1  0
 29 30  1  0
 30 31  1  0
 31 32  1  0
 32 33  1  0
M  CHG  2   1   1  31   1
M  END
$$$$
