
     RDKit          3D

 33 37  0  0  0  0  0  0  0  0999 V2000
   -0.5005  -66.4629   19.1179 N   0  0  0  0  0  4  0  0  0  0  0  0
    0.2657  -67.3012   18.1492 C   0  0  0  0  0  0  0  0  0  0  0  0
    1.2869  -66.4284   17.4743 C   0  0  0  0  0  0  0  0  0  0  0  0
    2.5634  -66.3702   18.0055 C   0  0  0  0  0  0  0  0  0  0  0  0
    3.5257  -65.5571   17.3815 C   0  0  0  0  0  0  0  0  0  0  0  0
    3.2064  -64.8317   16.2633 C   0  0  0  0  0  0  0  0  0  0  0  0
    1.9375  -64.9119   15.7653 C   0  0  0  0  0  0  0  0  0  0  0  0
    0.9620  -65.7127   16.3665 C   0  0  0  0  0  0  0  0  0  0  0  0
    4.1890  -63.9955   15.6166 C   0  0  0  0  0  0  0  0  0  0  0  0
    5.4517  -64.4931   15.3597 C   0  0  0  0  0  0  0  0  0  0  0  0
    5.7817  -65.8475   15.7454 C   0  0  0  0  0  0  0  0  0  0  0  0
    6.7984  -66.1276   16.6277 C   0  0  0  0  0  0  0  0  0  0  0  0
    7.0996  -67.4459   16.9887 C   0  0  0  0  0  0  0  0  0  0  0  0
    6.3986  -68.4973   16.4807 C   0  0  0  0  0  0  0  0  0  0  0  0
    6.7019  -69.8838   16.8506 C   0  0  0  0  0  0  0  0  0  0  0  0
    7.7437  -70.3799   17.6020 C   0  0  0  0  0  0  0  0  0  0  0  0
    7.6289  -71.6967   17.6857 O   0  0  0  0  0  0  0  0  0  0  0  0
    6.5735  -72.1167   17.0363 C   0  0  0  0  0  0  0  0  0  0  0  0
    5.9678  -70.9972   16.4986 C   0  0  0  0  0  0  0  0  0  0  0  0
    5.3679  -68.2190   15.5866 C   0  0  0  0  0  0  0  0  0  0  0  0
    5.0855  -66.9103   15.2423 C   0  0  0  0  0  0  0  0  0  0  0  0
    6.3372  -63.6714   14.7499 N   0  0  0  0  0  0  0  0  0  0  0  0
    6.0599  -62.4293   14.3906 C   0  0  0  0  0  0  0  0  0  0  0  0
    4.8042  -61.9275   14.6436 C   0  0  0  0  0  0  0  0  0  0  0  0
    3.9178  -62.7258   15.2451 N   0  0  0  0  0  0  0  0  0  0  0  0
    7.0153  -61.6559   13.7740 O   0  0  0  0  0  0  0  0  0  0  0  0
    7.6339  -60.5237   14.3035 C   0  0  0  0  0  0  0  0  0  0  0  0
    8.7810  -60.8446   15.2169 C   0  0  1  0  0  0  0  0  0  0  0  0
    9.9982  -61.3006   14.4759 C   0  0  0  0  0  0  0  0  0  0  0  0
   11.1775  -60.4137   14.7356 C   0  0  0  0  0  0  0  0  0  0  0  0
   10.8740  -59.0179   14.4782 N   0  0  0  0  0  4  0  0  0  0  0  0
    9.7013  -58.5758   15.1667 C   0  0  0  0  0  0  0  0  0  0  0  0
    9.1434  -59.6395   16.0892 C   0  0  0  0  0  0  0  0  0  0  0  0
  1  2  1  6
  2  3  1  6
  3  4  2  0
  3  8  1  0
  4  5  1  0
  5  6  2  0
  6  7  1  0
  6  9  1  0
  7  8  2  0
  9 10  1  0
  9 25  2  0
 10 11  1  0
 10 22  2  0
 11 12  2  0
 11 21  1  0
 12 13  1  0
 13 14  2  0
 14 15  1  0
 14 20  1  0
 15 16  2  0
 15 19  1  0
 16 17  1  0
 17 18  1  0
 18 19  2  0
 20 21  2  0
 22 23  1  0
 23 24  2  0
 23 26  1  0
 24 25  1  0
 27 26  1  1
 28 27  1  6
 29 28  1  1
 28 33  1  0
 30 29  1  1
 31 30  1  1
 32 31  1  1
 33 32  1  6
M  CHG  2   1   1  31   1
M  END
$$$$
