
     RDKit          3D

 33 37  0  0  0  0  0  0  0  0999 V2000
    2.8995  -58.3372   20.8641 N   0  0  0  0  0  4  0  0  0  0  0  0
    3.4581  -57.2539   20.0398 C   0  0  0  0  0  0  0  0  0  0  0  0
    4.2456  -57.8733   18.9431 C   0  0  0  0  0  0  0  0  0  0  0  0
    4.4384  -59.2324   18.9337 C   0  0  0  0  0  0  0  0  0  0  0  0
    5.1732  -59.8386   17.9152 C   0  0  0  0  0  0  0  0  0  0  0  0
    5.7260  -59.1023   16.8926 C   0  0  0  0  0  0  0  0  0  0  0  0
    5.5155  -57.7424   16.9297 C   0  0  0  0  0  0  0  0  0  0  0  0
    4.7919  -57.1233   17.9280 C   0  0  0  0  0  0  0  0  0  0  0  0
    6.4786  -59.7975   15.8610 C   0  0  0  0  0  0  0  0  0  0  0  0
    5.9530  -60.9175   15.2186 C   0  0  0  0  0  0  0  0  0  0  0  0
    4.6261  -61.3341   15.6461 C   0  0  0  0  0  0  0  0  0  0  0  0
    4.3804  -62.5724   16.1845 C   0  0  0  0  0  0  0  0  0  0  0  0
    3.0819  -62.9110   16.5739 C   0  0  0  0  0  0  0  0  0  0  0  0
    2.0377  -62.0227   16.4275 C   0  0  0  0  0  0  0  0  0  0  0  0
    0.6643  -62.3233   16.8163 C   0  0  0  0  0  0  0  0  0  0  0  0
   -0.4485  -61.6077   16.4452 C   0  0  0  0  0  0  0  0  0  0  0  0
   -1.5333  -62.1244   16.9529 O   0  0  0  0  0  0  0  0  0  0  0  0
   -1.1848  -63.1607   17.6505 C   0  0  0  0  0  0  0  0  0  0  0  0
    0.1981  -63.3471   17.6084 C   0  0  0  0  0  0  0  0  0  0  0  0
    2.3239  -60.7899   15.8832 C   0  0  0  0  0  0  0  0  0  0  0  0
    3.5850  -60.4546   15.5026 C   0  0  0  0  0  0  0  0  0  0  0  0
    6.6440  -61.5628   14.2659 N   0  0  0  0  0  0  0  0  0  0  0  0
    7.8611  -61.1905   13.8682 C   0  0  0  0  0  0  0  0  0  0  0  0
    8.3850  -60.0614   14.5195 C   0  0  0  0  0  0  0  0  0  0  0  0
    7.7054  -59.4082   15.4723 N   0  0  0  0  0  0  0  0  0  0  0  0
    8.6269  -61.8055   12.8993 O   0  0  0  0  0  0  0  0  0  0  0  0
    8.5202  -63.1640   12.6527 C   0  0  0  0  0  0  0  0  0  0  0  0
    9.3465  -63.9476   13.6307 C   0  0  1  0  0  0  0  0  0  0  0  0
    8.8358  -65.3858   13.6200 C   0  0  0  0  0  0  0  0  0  0  0  0
    9.2749  -66.1053   12.3911 C   0  0  0  0  0  0  0  0  0  0  0  0
   10.6917  -66.2241   12.3164 N   0  0  0  0  0  4  0  0  0  0  0  0
   11.3568  -65.3456   13.2325 C   0  0  0  0  0  0  0  0  0  0  0  0
   10.7817  -63.9532   13.0990 C   0  0  0  0  0  0  0  0  0  0  0  0
  1  2  1  0
  2  3  1  0
  3  4  2  0
  3  8  1  0
  4  5  1  0
  5  6  2  0
  6  7  1  0
  6  9  1  0
  7  8  2  0
  9 10  1  0
  9 25  2  0
 10 11  1  0
 10 22  2  0
 11 12  2  0
 11 21  1  0
 12 13  1  0
 13 14  2  0
 14 15  1  0
 14 20  1  0
 15 16  2  0
 15 19  1  0
 16 17  1  0
 17 18  1  0
 18 19  2  0
 20 21  2  0
 22 23  1  0
 23 24  2  0
 23 26  1  0
 24 25  1  0
 26 27  1  0
 28 27  1  6
 28 29  1  0
 28 33  1  0
 29 30  1  0
 30 31  1  0
 31 32  1  0
 32 33  1  0
M  CHG  2   1   1  31   1
M  END
$$$$
