
     RDKit          3D

 33 37  0  0  0  0  0  0  0  0999 V2000
   -2.0231  -61.8810   15.6976 N   0  0  0  0  0  4  0  0  0  0  0  0
   -1.1498  -60.8444   16.2704 C   0  0  0  0  0  0  0  0  0  0  0  0
    0.2590  -61.2656   16.0599 C   0  0  0  0  0  0  0  0  0  0  0  0
    0.9893  -61.7374   17.1222 C   0  0  0  0  0  0  0  0  0  0  0  0
    2.3136  -62.1399   16.9510 C   0  0  0  0  0  0  0  0  0  0  0  0
    2.9294  -62.0789   15.7220 C   0  0  0  0  0  0  0  0  0  0  0  0
    2.1714  -61.6016   14.6767 C   0  0  0  0  0  0  0  0  0  0  0  0
    0.8603  -61.1985   14.8248 C   0  0  0  0  0  0  0  0  0  0  0  0
    4.3115  -62.5166   15.6125 C   0  0  0  0  0  0  0  0  0  0  0  0
    5.3167  -61.9218   16.3734 C   0  0  0  0  0  0  0  0  0  0  0  0
    4.8939  -60.8527   17.2653 C   0  0  0  0  0  0  0  0  0  0  0  0
    4.8951  -60.9887   18.6309 C   0  0  0  0  0  0  0  0  0  0  0  0
    4.4752  -59.9234   19.4316 C   0  0  0  0  0  0  0  0  0  0  0  0
    4.0578  -58.7329   18.8752 C   0  0  0  0  0  0  0  0  0  0  0  0
    3.6097  -57.5896   19.6624 C   0  0  0  0  0  0  0  0  0  0  0  0
    3.7663  -57.4403   21.0194 C   0  0  0  0  0  0  0  0  0  0  0  0
    3.2603  -56.3110   21.4318 O   0  0  0  0  0  0  0  0  0  0  0  0
    2.7706  -55.6998   20.3979 C   0  0  0  0  0  0  0  0  0  0  0  0
    2.9573  -56.4549   19.2387 C   0  0  0  0  0  0  0  0  0  0  0  0
    4.0709  -58.6348   17.5011 C   0  0  0  0  0  0  0  0  0  0  0  0
    4.4782  -59.6676   16.7169 C   0  0  0  0  0  0  0  0  0  0  0  0
    6.5941  -62.3220   16.2756 N   0  0  0  0  0  0  0  0  0  0  0  0
    6.9924  -63.2992   15.4603 C   0  0  0  0  0  0  0  0  0  0  0  0
    5.9747  -63.8941   14.6963 C   0  0  0  0  0  0  0  0  0  0  0  0
    4.6956  -63.5039   14.7846 N   0  0  0  0  0  0  0  0  0  0  0  0
    8.2840  -63.7597   15.3082 O   0  0  0  0  0  0  0  0  0  0  0  0
    9.3538  -62.8849   15.2170 C   0  0  0  0  0  0  0  0  0  0  0  0
    9.7627  -62.4024   16.5783 C   0  0  1  0  0  0  0  0  0  0  0  0
   10.4826  -63.5511   17.2793 C   0  0  0  0  0  0  0  0  0  0  0  0
   11.8556  -63.7414   16.7323 C   0  0  0  0  0  0  0  0  0  0  0  0
   12.6843  -62.6054   16.9555 N   0  0  0  0  0  4  0  0  0  0  0  0
   11.9260  -61.4484   17.3293 C   0  0  0  0  0  0  0  0  0  0  0  0
   10.7728  -61.2722   16.3668 C   0  0  0  0  0  0  0  0  0  0  0  0
  1  2  1  0
  2  3  1  0
  3  4  2  0
  3  8  1  0
  4  5  1  0
  5  6  2  0
  6  7  1  0
  6  9  1  0
  7  8  2  0
  9 10  1  0
  9 25  2  0
 10 11  1  0
 10 22  2  0
 11 12  2  0
 11 21  1  0
 12 13  1  0
 13 14  2  0
 14 15  1  0
 14 20  1  0
 15 16  2  0
 15 19  1  0
 16 17  1  0
 17 18  1  0
 18 19  2  0
 20 21  2  0
 22 23  1  0
 23 24  2  0
 23 26  1  0
 24 25  1  0
 26 27  1  0
 28 27  1  6
 28 29  1  0
 28 33  1  0
 29 30  1  0
 30 31  1  0
 31 32  1  0
 32 33  1  0
M  CHG  2   1   1  31   1
M  END
$$$$
