
     RDKit          3D

 33 37  0  0  0  0  0  0  0  0999 V2000
    0.4424  -59.0204   12.1769 N   0  0  0  0  0  4  0  0  0  0  0  0
    0.6026  -60.2955   12.9364 C   0  0  0  0  0  0  0  0  0  0  0  0
    2.0571  -60.6754   12.9193 C   0  0  0  0  0  0  0  0  0  0  0  0
    2.9597  -59.8139   12.3210 C   0  0  0  0  0  0  0  0  0  0  0  0
    4.3222  -60.1598   12.3001 C   0  0  0  0  0  0  0  0  0  0  0  0
    4.7525  -61.3329   12.8634 C   0  0  0  0  0  0  0  0  0  0  0  0
    3.8353  -62.1603   13.4455 C   0  0  0  0  0  0  0  0  0  0  0  0
    2.4749  -61.8400   13.4798 C   0  0  0  0  0  0  0  0  0  0  0  0
    6.1495  -61.6946   12.8468 C   0  0  0  0  0  0  0  0  0  0  0  0
    6.7017  -62.3509   13.9296 C   0  0  0  0  0  0  0  0  0  0  0  0
    5.8766  -62.6665   15.0749 C   0  0  0  0  0  0  0  0  0  0  0  0
    5.5335  -61.7188   16.0102 C   0  0  0  0  0  0  0  0  0  0  0  0
    4.7322  -62.0457   17.1101 C   0  0  0  0  0  0  0  0  0  0  0  0
    4.2639  -63.3113   17.2943 C   0  0  0  0  0  0  0  0  0  0  0  0
    3.4223  -63.6685   18.4412 C   0  0  0  0  0  0  0  0  0  0  0  0
    3.0537  -64.9131   18.9007 C   0  0  0  0  0  0  0  0  0  0  0  0
    2.2834  -64.7700   19.9685 O   0  0  0  0  0  0  0  0  0  0  0  0
    2.1112  -63.5051   20.2554 C   0  0  0  0  0  0  0  0  0  0  0  0
    2.8169  -62.7850   19.3105 C   0  0  0  0  0  0  0  0  0  0  0  0
    4.6086  -64.2749   16.3499 C   0  0  0  0  0  0  0  0  0  0  0  0
    5.4010  -63.9327   15.2701 C   0  0  0  0  0  0  0  0  0  0  0  0
    8.0151  -62.6704   13.8659 N   0  0  0  0  0  0  0  0  0  0  0  0
    8.7901  -62.3900   12.8316 C   0  0  0  0  0  0  0  0  0  0  0  0
    8.2465  -61.7365   11.7500 C   0  0  0  0  0  0  0  0  0  0  0  0
    6.9509  -61.4137   11.7967 N   0  0  0  0  0  0  0  0  0  0  0  0
   10.1177  -62.7485   12.8423 O   0  0  0  0  0  0  0  0  0  0  0  0
   11.1046  -62.2485   13.6914 C   0  0  0  0  0  0  0  0  0  0  0  0
   11.0178  -62.7903   15.0886 C   0  0  1  0  0  0  0  0  0  0  0  0
   11.3554  -64.2459   15.1648 C   0  0  0  0  0  0  0  0  0  0  0  0
   12.5200  -64.5046   16.0711 C   0  0  0  0  0  0  0  0  0  0  0  0
   13.6724  -63.6958   15.7183 N   0  0  0  0  0  4  0  0  0  0  0  0
   13.3575  -62.3042   15.6241 C   0  0  0  0  0  0  0  0  0  0  0  0
   11.9308  -62.0103   16.0387 C   0  0  0  0  0  0  0  0  0  0  0  0
  1  2  1  6
  2  3  1  6
  3  4  2  0
  3  8  1  0
  4  5  1  0
  5  6  2  0
  6  7  1  0
  6  9  1  0
  7  8  2  0
  9 10  1  0
  9 25  2  0
 10 11  1  0
 10 22  2  0
 11 12  2  0
 11 21  1  0
 12 13  1  0
 13 14  2  0
 14 15  1  0
 14 20  1  0
 15 16  2  0
 15 19  1  0
 16 17  1  0
 17 18  1  0
 18 19  2  0
 20 21  2  0
 22 23  1  0
 23 24  2  0
 23 26  1  0
 24 25  1  0
 27 26  1  1
 28 27  1  6
 29 28  1  1
 28 33  1  0
 30 29  1  1
 31 30  1  1
 32 31  1  1
 33 32  1  6
M  CHG  2   1   1  31   1
M  END
$$$$
