
     RDKit          3D

 33 37  0  0  0  0  0  0  0  0999 V2000
    0.9283  -66.3702   14.1646 N   0  0  0  0  0  4  0  0  0  0  0  0
    1.9003  -66.9494   15.1053 C   0  0  0  0  0  0  0  0  0  0  0  0
    3.2552  -66.4940   14.7010 C   0  0  0  0  0  0  0  0  0  0  0  0
    3.4048  -65.2700   14.0976 C   0  0  0  0  0  0  0  0  0  0  0  0
    4.6659  -64.8190   13.7091 C   0  0  0  0  0  0  0  0  0  0  0  0
    5.7949  -65.5782   13.9150 C   0  0  0  0  0  0  0  0  0  0  0  0
    5.6127  -66.8003   14.5218 C   0  0  0  0  0  0  0  0  0  0  0  0
    4.3741  -67.2649   14.9137 C   0  0  0  0  0  0  0  0  0  0  0  0
    7.0793  -65.0473   13.4879 C   0  0  0  0  0  0  0  0  0  0  0  0
    7.5855  -63.8666   14.0293 C   0  0  0  0  0  0  0  0  0  0  0  0
    6.7539  -63.2156   15.0301 C   0  0  0  0  0  0  0  0  0  0  0  0
    6.2931  -61.9313   14.8829 C   0  0  0  0  0  0  0  0  0  0  0  0
    5.4991  -61.3635   15.8826 C   0  0  0  0  0  0  0  0  0  0  0  0
    5.1675  -62.0703   17.0191 C   0  0  0  0  0  0  0  0  0  0  0  0
    4.3431  -61.5274   18.0930 C   0  0  0  0  0  0  0  0  0  0  0  0
    3.6060  -60.3695   18.0301 C   0  0  0  0  0  0  0  0  0  0  0  0
    2.9753  -60.1495   19.1505 O   0  0  0  0  0  0  0  0  0  0  0  0
    3.2650  -61.1201   19.9606 C   0  0  0  0  0  0  0  0  0  0  0  0
    4.1301  -62.0330   19.3547 C   0  0  0  0  0  0  0  0  0  0  0  0
    5.6488  -63.3563   17.1304 C   0  0  0  0  0  0  0  0  0  0  0  0
    6.4217  -63.9142   16.1613 C   0  0  0  0  0  0  0  0  0  0  0  0
    8.7705  -63.3724   13.6380 N   0  0  0  0  0  0  0  0  0  0  0  0
    9.5393  -63.9600   12.7205 C   0  0  0  0  0  0  0  0  0  0  0  0
    9.0234  -65.1490   12.1789 C   0  0  0  0  0  0  0  0  0  0  0  0
    7.8418  -65.6531   12.5609 N   0  0  0  0  0  0  0  0  0  0  0  0
   10.7633  -63.5090   12.2711 O   0  0  0  0  0  0  0  0  0  0  0  0
   11.6294  -62.8248   13.1075 C   0  0  0  0  0  0  0  0  0  0  0  0
   12.4788  -63.7830   13.8908 C   0  0  1  0  0  0  0  0  0  0  0  0
   13.7393  -63.0382   14.3217 C   0  0  0  0  0  0  0  0  0  0  0  0
   13.4527  -62.0930   15.4375 C   0  0  0  0  0  0  0  0  0  0  0  0
   13.0117  -62.7668   16.6116 N   0  0  0  0  0  4  0  0  0  0  0  0
   12.6230  -64.1200   16.3443 C   0  0  0  0  0  0  0  0  0  0  0  0
   11.6927  -64.1482   15.1523 C   0  0  0  0  0  0  0  0  0  0  0  0
  1  2  1  0
  2  3  1  0
  3  4  2  0
  3  8  1  0
  4  5  1  0
  5  6  2  0
  6  7  1  0
  6  9  1  0
  7  8  2  0
  9 10  1  0
  9 25  2  0
 10 11  1  0
 10 22  2  0
 11 12  2  0
 11 21  1  0
 12 13  1  0
 13 14  2  0
 14 15  1  0
 14 20  1  0
 15 16  2  0
 15 19  1  0
 16 17  1  0
 17 18  1  0
 18 19  2  0
 20 21  2  0
 22 23  1  0
 23 24  2  0
 23 26  1  0
 24 25  1  0
 26 27  1  0
 28 27  1  6
 28 29  1  0
 28 33  1  0
 29 30  1  0
 30 31  1  0
 31 32  1  0
 32 33  1  0
M  CHG  2   1   1  31   1
M  END
$$$$
