
     RDKit          3D

 33 37  0  0  0  0  0  0  0  0999 V2000
    9.9005  -62.9232   18.0966 N   0  0  0  0  0  4  0  0  0  0  0  0
    9.9010  -63.2186   16.6551 C   0  0  0  0  0  0  0  0  0  0  0  0
    8.6802  -62.6132   16.0638 C   0  0  0  0  0  0  0  0  0  0  0  0
    7.8192  -63.3991   15.3389 C   0  0  0  0  0  0  0  0  0  0  0  0
    6.6658  -62.8554   14.7741 C   0  0  0  0  0  0  0  0  0  0  0  0
    6.3530  -61.5236   14.9221 C   0  0  0  0  0  0  0  0  0  0  0  0
    7.2355  -60.7616   15.6539 C   0  0  0  0  0  0  0  0  0  0  0  0
    8.3815  -61.2799   16.2208 C   0  0  0  0  0  0  0  0  0  0  0  0
    5.1338  -61.0218   14.3092 C   0  0  0  0  0  0  0  0  0  0  0  0
    4.2518  -60.2106   15.0216 C   0  0  0  0  0  0  0  0  0  0  0  0
    4.6291  -59.9094   16.3942 C   0  0  0  0  0  0  0  0  0  0  0  0
    4.7381  -60.8800   17.3583 C   0  0  0  0  0  0  0  0  0  0  0  0
    5.1033  -60.5238   18.6590 C   0  0  0  0  0  0  0  0  0  0  0  0
    5.3575  -59.2110   18.9954 C   0  0  0  0  0  0  0  0  0  0  0  0
    5.7417  -58.7832   20.3359 C   0  0  0  0  0  0  0  0  0  0  0  0
    5.8860  -57.4813   20.7509 C   0  0  0  0  0  0  0  0  0  0  0  0
    6.2388  -57.4217   22.0053 O   0  0  0  0  0  0  0  0  0  0  0  0
    6.3354  -58.6386   22.4438 C   0  0  0  0  0  0  0  0  0  0  0  0
    6.0332  -59.5562   21.4360 C   0  0  0  0  0  0  0  0  0  0  0  0
    5.2377  -58.2657   18.0005 C   0  0  0  0  0  0  0  0  0  0  0  0
    4.8828  -58.6061   16.7332 C   0  0  0  0  0  0  0  0  0  0  0  0
    3.1250  -59.7452   14.4603 N   0  0  0  0  0  0  0  0  0  0  0  0
    2.7691  -60.0167   13.2042 C   0  0  0  0  0  0  0  0  0  0  0  0
    3.6619  -60.8346   12.4920 C   0  0  0  0  0  0  0  0  0  0  0  0
    4.7903  -61.3058   13.0407 N   0  0  0  0  0  0  0  0  0  0  0  0
    1.6289  -59.5750   12.5652 O   0  0  0  0  0  0  0  0  0  0  0  0
    0.3908  -59.6292   13.1834 C   0  0  0  0  0  0  0  0  0  0  0  0
   -0.5216  -60.5782   12.4623 C   0  0  1  0  0  0  0  0  0  0  0  0
   -1.0869  -61.5504   13.4940 C   0  0  0  0  0  0  0  0  0  0  0  0
   -2.1293  -60.8981   14.3358 C   0  0  0  0  0  0  0  0  0  0  0  0
   -3.2571  -60.4868   13.5703 N   0  0  0  0  0  4  0  0  0  0  0  0
   -2.9823  -60.4800   12.1639 C   0  0  0  0  0  0  0  0  0  0  0  0
   -1.6832  -59.7484   11.9104 C   0  0  0  0  0  0  0  0  0  0  0  0
  1  2  1  0
  2  3  1  0
  3  4  2  0
  3  8  1  0
  4  5  1  0
  5  6  2  0
  6  7  1  0
  6  9  1  0
  7  8  2  0
  9 10  1  0
  9 25  2  0
 10 11  1  0
 10 22  2  0
 11 12  2  0
 11 21  1  0
 12 13  1  0
 13 14  2  0
 14 15  1  0
 14 20  1  0
 15 16  2  0
 15 19  1  0
 16 17  1  0
 17 18  1  0
 18 19  2  0
 20 21  2  0
 22 23  1  0
 23 24  2  0
 23 26  1  0
 24 25  1  0
 26 27  1  0
 28 27  1  1
 28 29  1  0
 28 33  1  0
 29 30  1  0
 30 31  1  0
 31 32  1  0
 32 33  1  0
M  CHG  2   1   1  31   1
M  END
$$$$
