
     RDKit          3D

 33 37  0  0  0  0  0  0  0  0999 V2000
    4.8230  -64.0879   19.9802 N   0  0  0  0  0  4  0  0  0  0  0  0
    4.0697  -64.6935   18.8425 C   0  0  0  0  0  0  0  0  0  0  0  0
    4.4200  -63.9395   17.5899 C   0  0  0  0  0  0  0  0  0  0  0  0
    4.0427  -62.6120   17.4885 C   0  0  0  0  0  0  0  0  0  0  0  0
    4.3659  -61.8980   16.3214 C   0  0  0  0  0  0  0  0  0  0  0  0
    5.0447  -62.5060   15.2975 C   0  0  0  0  0  0  0  0  0  0  0  0
    5.4019  -63.8173   15.4302 C   0  0  0  0  0  0  0  0  0  0  0  0
    5.0928  -64.5498   16.5800 C   0  0  0  0  0  0  0  0  0  0  0  0
    5.3809  -61.7795   14.0966 C   0  0  0  0  0  0  0  0  0  0  0  0
    6.6990  -61.6930   13.6930 C   0  0  0  0  0  0  0  0  0  0  0  0
    7.7339  -62.3270   14.4799 C   0  0  0  0  0  0  0  0  0  0  0  0
    8.8499  -62.8858   13.9030 C   0  0  0  0  0  0  0  0  0  0  0  0
    9.8402  -63.4928   14.6838 C   0  0  0  0  0  0  0  0  0  0  0  0
    9.7353  -63.5524   16.0403 C   0  0  0  0  0  0  0  0  0  0  0  0
   10.7655  -64.1840   16.8717 C   0  0  0  0  0  0  0  0  0  0  0  0
   11.9064  -64.8544   16.4904 C   0  0  0  0  0  0  0  0  0  0  0  0
   12.5510  -65.2626   17.5730 O   0  0  0  0  0  0  0  0  0  0  0  0
   11.9135  -64.9080   18.6591 C   0  0  0  0  0  0  0  0  0  0  0  0
   10.7834  -64.2261   18.2502 C   0  0  0  0  0  0  0  0  0  0  0  0
    8.6069  -62.9880   16.6297 C   0  0  0  0  0  0  0  0  0  0  0  0
    7.6396  -62.3928   15.8416 C   0  0  0  0  0  0  0  0  0  0  0  0
    6.9636  -61.0026   12.5596 N   0  0  0  0  0  0  0  0  0  0  0  0
    6.0354  -60.4123   11.8254 C   0  0  0  0  0  0  0  0  0  0  0  0
    4.7207  -60.4946   12.2218 C   0  0  0  0  0  0  0  0  0  0  0  0
    4.4423  -61.1726   13.3388 N   0  0  0  0  0  0  0  0  0  0  0  0
    6.3846  -59.7284   10.6845 O   0  0  0  0  0  0  0  0  0  0  0  0
    7.6162  -59.7784   10.0322 C   0  0  0  0  0  0  0  0  0  0  0  0
    7.4961  -59.9681    8.5480 C   0  0  1  0  0  0  0  0  0  0  0  0
    7.9544  -58.7719    7.7747 C   0  0  0  0  0  0  0  0  0  0  0  0
    9.0826  -59.1033    6.8463 C   0  0  0  0  0  0  0  0  0  0  0  0
   10.1786  -59.7586    7.5362 N   0  0  0  0  0  4  0  0  0  0  0  0
    9.7495  -60.8927    8.2941 C   0  0  0  0  0  0  0  0  0  0  0  0
    8.2810  -61.1988    8.0855 C   0  0  0  0  0  0  0  0  0  0  0  0
  1  2  1  6
  2  3  1  6
  3  4  2  0
  3  8  1  0
  4  5  1  0
  5  6  2  0
  6  7  1  0
  6  9  1  0
  7  8  2  0
  9 10  1  0
  9 25  2  0
 10 11  1  0
 10 22  2  0
 11 12  2  0
 11 21  1  0
 12 13  1  0
 13 14  2  0
 14 15  1  0
 14 20  1  0
 15 16  2  0
 15 19  1  0
 16 17  1  0
 17 18  1  0
 18 19  2  0
 20 21  2  0
 22 23  1  0
 23 24  2  0
 23 26  1  0
 24 25  1  0
 27 26  1  1
 28 27  1  1
 29 28  1  1
 28 33  1  0
 30 29  1  1
 31 30  1  1
 32 31  1  1
 33 32  1  6
M  CHG  2   1   1  31   1
M  END
$$$$
