
     RDKit          3D

 33 37  0  0  0  0  0  0  0  0999 V2000
   -0.4282  -60.8116   11.6070 N   0  0  0  0  0  4  0  0  0  0  0  0
    0.1645  -60.3142   12.8836 C   0  0  0  0  0  0  0  0  0  0  0  0
    1.6310  -60.6449   12.8834 C   0  0  0  0  0  0  0  0  0  0  0  0
    2.1495  -61.3574   13.9503 C   0  0  0  0  0  0  0  0  0  0  0  0
    3.5198  -61.6719   13.9594 C   0  0  0  0  0  0  0  0  0  0  0  0
    4.3321  -61.2794   12.9275 C   0  0  0  0  0  0  0  0  0  0  0  0
    3.7880  -60.5776   11.8903 C   0  0  0  0  0  0  0  0  0  0  0  0
    2.4289  -60.2520   11.8568 C   0  0  0  0  0  0  0  0  0  0  0  0
    5.7394  -61.5993   12.9292 C   0  0  0  0  0  0  0  0  0  0  0  0
    6.5025  -61.3339   14.0495 C   0  0  0  0  0  0  0  0  0  0  0  0
    5.8863  -60.7323   15.2117 C   0  0  0  0  0  0  0  0  0  0  0  0
    5.8719  -61.3580   16.4360 C   0  0  0  0  0  0  0  0  0  0  0  0
    5.2716  -60.7566   17.5481 C   0  0  0  0  0  0  0  0  0  0  0  0
    4.6809  -59.5327   17.4590 C   0  0  0  0  0  0  0  0  0  0  0  0
    4.0490  -58.8896   18.6159 C   0  0  0  0  0  0  0  0  0  0  0  0
    4.1286  -59.2191   19.9506 C   0  0  0  0  0  0  0  0  0  0  0  0
    3.3963  -58.3669   20.6516 O   0  0  0  0  0  0  0  0  0  0  0  0
    2.8288  -57.4842   19.8701 C   0  0  0  0  0  0  0  0  0  0  0  0
    3.2210  -57.7870   18.5802 C   0  0  0  0  0  0  0  0  0  0  0  0
    4.6927  -58.8947   16.2213 C   0  0  0  0  0  0  0  0  0  0  0  0
    5.2907  -59.5048   15.1344 C   0  0  0  0  0  0  0  0  0  0  0  0
    7.8166  -61.6534   14.0032 N   0  0  0  0  0  0  0  0  0  0  0  0
    8.4029  -62.2011   12.9518 C   0  0  0  0  0  0  0  0  0  0  0  0
    7.6486  -62.4679   11.8327 C   0  0  0  0  0  0  0  0  0  0  0  0
    6.3493  -62.1585   11.8619 N   0  0  0  0  0  0  0  0  0  0  0  0
    9.7455  -62.4971   12.9822 O   0  0  0  0  0  0  0  0  0  0  0  0
   10.6333  -62.2152   14.0201 C   0  0  0  0  0  0  0  0  0  0  0  0
   10.3483  -62.9900   15.2737 C   0  0  1  0  0  0  0  0  0  0  0  0
   10.5523  -64.4621   15.1009 C   0  0  0  0  0  0  0  0  0  0  0  0
   11.5845  -64.9996   16.0446 C   0  0  0  0  0  0  0  0  0  0  0  0
   12.8324  -64.2631   15.9608 N   0  0  0  0  0  4  0  0  0  0  0  0
   12.6475  -62.8527   16.1059 C   0  0  0  0  0  0  0  0  0  0  0  0
   11.2135  -62.4938   16.4356 C   0  0  0  0  0  0  0  0  0  0  0  0
  1  2  1  6
  2  3  1  6
  3  4  2  0
  3  8  1  0
  4  5  1  0
  5  6  2  0
  6  7  1  0
  6  9  1  0
  7  8  2  0
  9 10  1  0
  9 25  2  0
 10 11  1  0
 10 22  2  0
 11 12  2  0
 11 21  1  0
 12 13  1  0
 13 14  2  0
 14 15  1  0
 14 20  1  0
 15 16  2  0
 15 19  1  0
 16 17  1  0
 17 18  1  0
 18 19  2  0
 20 21  2  0
 22 23  1  0
 23 24  2  0
 23 26  1  0
 24 25  1  0
 27 26  1  1
 28 27  1  6
 29 28  1  1
 28 33  1  0
 30 29  1  1
 31 30  1  1
 32 31  1  1
 33 32  1  6
M  CHG  2   1   1  31   1
M  END
$$$$
