
     RDKit          3D

 33 37  0  0  0  0  0  0  0  0999 V2000
   -0.5603  -58.4031   14.4164 N   0  0  0  0  0  4  0  0  0  0  0  0
   -0.4842  -59.6882   13.6606 C   0  0  0  0  0  0  0  0  0  0  0  0
    0.9323  -60.1884   13.7216 C   0  0  0  0  0  0  0  0  0  0  0  0
    1.9462  -59.2784   13.9643 C   0  0  0  0  0  0  0  0  0  0  0  0
    3.2741  -59.7361   14.0236 C   0  0  0  0  0  0  0  0  0  0  0  0
    3.5626  -61.0639   13.8440 C   0  0  0  0  0  0  0  0  0  0  0  0
    2.5383  -61.9351   13.6063 C   0  0  0  0  0  0  0  0  0  0  0  0
    1.2094  -61.5060   13.5424 C   0  0  0  0  0  0  0  0  0  0  0  0
    4.9232  -61.5416   13.9044 C   0  0  0  0  0  0  0  0  0  0  0  0
    5.6871  -61.2979   15.0291 C   0  0  0  0  0  0  0  0  0  0  0  0
    5.1193  -60.5608   16.1366 C   0  0  0  0  0  0  0  0  0  0  0  0
    5.6641  -59.3799   16.5828 C   0  0  0  0  0  0  0  0  0  0  0  0
    5.0972  -58.6819   17.6553 C   0  0  0  0  0  0  0  0  0  0  0  0
    3.9878  -59.1455   18.2950 C   0  0  0  0  0  0  0  0  0  0  0  0
    3.3818  -58.4245   19.4195 C   0  0  0  0  0  0  0  0  0  0  0  0
    3.7474  -57.2242   19.9868 C   0  0  0  0  0  0  0  0  0  0  0  0
    2.9207  -56.9466   20.9835 O   0  0  0  0  0  0  0  0  0  0  0  0
    2.0213  -57.8868   21.1215 C   0  0  0  0  0  0  0  0  0  0  0  0
    2.2854  -58.8331   20.1497 C   0  0  0  0  0  0  0  0  0  0  0  0
    3.4321  -60.3412   17.8471 C   0  0  0  0  0  0  0  0  0  0  0  0
    4.0065  -61.0161   16.7861 C   0  0  0  0  0  0  0  0  0  0  0  0
    6.9561  -61.7675   15.0389 N   0  0  0  0  0  0  0  0  0  0  0  0
    7.4980  -62.4409   14.0379 C   0  0  0  0  0  0  0  0  0  0  0  0
    6.7427  -62.6871   12.9148 C   0  0  0  0  0  0  0  0  0  0  0  0
    5.4876  -62.2302   12.8889 N   0  0  0  0  0  0  0  0  0  0  0  0
    8.7964  -62.8859   14.1238 O   0  0  0  0  0  0  0  0  0  0  0  0
    9.9178  -62.1163   14.4322 C   0  0  0  0  0  0  0  0  0  0  0  0
   10.2120  -62.0560   15.9030 C   0  0  1  0  0  0  0  0  0  0  0  0
   10.3998  -63.4107   16.5096 C   0  0  0  0  0  0  0  0  0  0  0  0
   11.7539  -63.5630   17.1327 C   0  0  0  0  0  0  0  0  0  0  0  0
   12.8189  -63.2291   16.2048 N   0  0  0  0  0  4  0  0  0  0  0  0
   12.6400  -61.9438   15.6043 C   0  0  0  0  0  0  0  0  0  0  0  0
   11.4522  -61.2022   16.1813 C   0  0  0  0  0  0  0  0  0  0  0  0
  1  2  1  6
  2  3  1  6
  3  4  2  0
  3  8  1  0
  4  5  1  0
  5  6  2  0
  6  7  1  0
  6  9  1  0
  7  8  2  0
  9 10  1  0
  9 25  2  0
 10 11  1  0
 10 22  2  0
 11 12  2  0
 11 21  1  0
 12 13  1  0
 13 14  2  0
 14 15  1  0
 14 20  1  0
 15 16  2  0
 15 19  1  0
 16 17  1  0
 17 18  1  0
 18 19  2  0
 20 21  2  0
 22 23  1  0
 23 24  2  0
 23 26  1  0
 24 25  1  0
 27 26  1  1
 28 27  1  6
 29 28  1  1
 28 33  1  0
 30 29  1  1
 31 30  1  1
 32 31  1  1
 33 32  1  6
M  CHG  2   1   1  31   1
M  END
$$$$
