
     RDKit          3D

 33 37  0  0  0  0  0  0  0  0999 V2000
    0.9251  -58.4118   12.1538 N   0  0  0  0  0  4  0  0  0  0  0  0
    0.8670  -59.8908   11.9598 C   0  0  0  0  0  0  0  0  0  0  0  0
    2.2594  -60.4402   12.1000 C   0  0  0  0  0  0  0  0  0  0  0  0
    2.5943  -61.1068   13.2655 C   0  0  0  0  0  0  0  0  0  0  0  0
    3.8938  -61.6245   13.4062 C   0  0  0  0  0  0  0  0  0  0  0  0
    4.8172  -61.4724   12.4047 C   0  0  0  0  0  0  0  0  0  0  0  0
    4.4537  -60.8092   11.2678 C   0  0  0  0  0  0  0  0  0  0  0  0
    3.1684  -60.2849   11.1027 C   0  0  0  0  0  0  0  0  0  0  0  0
    6.1528  -62.0019   12.5413 C   0  0  0  0  0  0  0  0  0  0  0  0
    6.8089  -61.9056   13.7530 C   0  0  0  0  0  0  0  0  0  0  0  0
    6.1542  -61.2699   14.8753 C   0  0  0  0  0  0  0  0  0  0  0  0
    5.7200  -61.9844   15.9669 C   0  0  0  0  0  0  0  0  0  0  0  0
    5.0904  -61.3486   17.0431 C   0  0  0  0  0  0  0  0  0  0  0  0
    4.8851  -60.0022   17.0489 C   0  0  0  0  0  0  0  0  0  0  0  0
    4.2280  -59.3219   18.1700 C   0  0  0  0  0  0  0  0  0  0  0  0
    3.8913  -57.9941   18.3102 C   0  0  0  0  0  0  0  0  0  0  0  0
    3.3114  -57.8163   19.4876 O   0  0  0  0  0  0  0  0  0  0  0  0
    3.2375  -58.9434   20.1480 C   0  0  0  0  0  0  0  0  0  0  0  0
    3.8071  -59.9118   19.3436 C   0  0  0  0  0  0  0  0  0  0  0  0
    5.3230  -59.2740   15.9457 C   0  0  0  0  0  0  0  0  0  0  0  0
    5.9428  -59.9199   14.8923 C   0  0  0  0  0  0  0  0  0  0  0  0
    8.0587  -62.4185   13.8317 N   0  0  0  0  0  0  0  0  0  0  0  0
    8.6787  -63.0012   12.8193 C   0  0  0  0  0  0  0  0  0  0  0  0
    8.0310  -63.1003   11.6097 C   0  0  0  0  0  0  0  0  0  0  0  0
    6.7963  -62.5989   11.5151 N   0  0  0  0  0  0  0  0  0  0  0  0
    9.9509  -63.4987   12.9788 O   0  0  0  0  0  0  0  0  0  0  0  0
   11.0269  -62.8462   13.5799 C   0  0  0  0  0  0  0  0  0  0  0  0
   11.0730  -63.0230   15.0698 C   0  0  1  0  0  0  0  0  0  0  0  0
   11.2467  -64.4525   15.4759 C   0  0  0  0  0  0  0  0  0  0  0  0
   12.4881  -64.6572   16.2893 C   0  0  0  0  0  0  0  0  0  0  0  0
   13.6662  -64.1332   15.6230 N   0  0  0  0  0  4  0  0  0  0  0  0
   13.5048  -62.7728   15.2133 C   0  0  0  0  0  0  0  0  0  0  0  0
   12.1935  -62.1829   15.6890 C   0  0  0  0  0  0  0  0  0  0  0  0
  1  2  1  6
  2  3  1  6
  3  4  2  0
  3  8  1  0
  4  5  1  0
  5  6  2  0
  6  7  1  0
  6  9  1  0
  7  8  2  0
  9 10  1  0
  9 25  2  0
 10 11  1  0
 10 22  2  0
 11 12  2  0
 11 21  1  0
 12 13  1  0
 13 14  2  0
 14 15  1  0
 14 20  1  0
 15 16  2  0
 15 19  1  0
 16 17  1  0
 17 18  1  0
 18 19  2  0
 20 21  2  0
 22 23  1  0
 23 24  2  0
 23 26  1  0
 24 25  1  0
 27 26  1  1
 28 27  1  6
 29 28  1  1
 28 33  1  0
 30 29  1  1
 31 30  1  1
 32 31  1  1
 33 32  1  6
M  CHG  2   1   1  31   1
M  END
$$$$
