
     RDKit          3D

 33 37  0  0  0  0  0  0  0  0999 V2000
   10.1486  -61.6554   21.0205 N   0  0  0  0  0  4  0  0  0  0  0  0
   10.9832  -62.3008   19.9947 C   0  0  0  0  0  0  0  0  0  0  0  0
   10.1844  -62.3912   18.7457 C   0  0  0  0  0  0  0  0  0  0  0  0
   10.7257  -61.9501   17.5638 C   0  0  0  0  0  0  0  0  0  0  0  0
    9.9968  -62.0246   16.3771 C   0  0  0  0  0  0  0  0  0  0  0  0
    8.7207  -62.5383   16.3493 C   0  0  0  0  0  0  0  0  0  0  0  0
    8.2055  -62.9722   17.5499 C   0  0  0  0  0  0  0  0  0  0  0  0
    8.9097  -62.9074   18.7345 C   0  0  0  0  0  0  0  0  0  0  0  0
    8.0173  -62.5891   15.0779 C   0  0  0  0  0  0  0  0  0  0  0  0
    6.7010  -62.1440   14.9657 C   0  0  0  0  0  0  0  0  0  0  0  0
    6.0927  -61.6371   16.1864 C   0  0  0  0  0  0  0  0  0  0  0  0
    5.0050  -62.2357   16.7712 C   0  0  0  0  0  0  0  0  0  0  0  0
    4.4673  -61.6975   17.9431 C   0  0  0  0  0  0  0  0  0  0  0  0
    5.0096  -60.5721   18.5267 C   0  0  0  0  0  0  0  0  0  0  0  0
    4.4891  -59.9684   19.7483 C   0  0  0  0  0  0  0  0  0  0  0  0
    4.9082  -58.7800   20.2962 C   0  0  0  0  0  0  0  0  0  0  0  0
    4.2525  -58.5071   21.3904 O   0  0  0  0  0  0  0  0  0  0  0  0
    3.4094  -59.4717   21.5933 C   0  0  0  0  0  0  0  0  0  0  0  0
    3.5048  -60.4358   20.5882 C   0  0  0  0  0  0  0  0  0  0  0  0
    6.1006  -59.9999   17.9103 C   0  0  0  0  0  0  0  0  0  0  0  0
    6.6283  -60.5189   16.7701 C   0  0  0  0  0  0  0  0  0  0  0  0
    6.0475  -62.1892   13.7943 N   0  0  0  0  0  0  0  0  0  0  0  0
    6.5949  -62.6535   12.6705 C   0  0  0  0  0  0  0  0  0  0  0  0
    7.9212  -63.1006   12.7904 C   0  0  0  0  0  0  0  0  0  0  0  0
    8.5850  -63.0609   13.9540 N   0  0  0  0  0  0  0  0  0  0  0  0
    5.9837  -62.7304   11.4360 O   0  0  0  0  0  0  0  0  0  0  0  0
    5.1063  -61.7494   11.0052 C   0  0  0  0  0  0  0  0  0  0  0  0
    5.8560  -60.5492   10.5046 C   0  0  1  0  0  0  0  0  0  0  0  0
    6.4507  -60.9087    9.1458 C   0  0  0  0  0  0  0  0  0  0  0  0
    5.4034  -60.9258    8.0858 C   0  0  0  0  0  0  0  0  0  0  0  0
    4.8127  -59.6445    7.8945 N   0  0  0  0  0  4  0  0  0  0  0  0
    5.1065  -58.7476    8.9728 C   0  0  0  0  0  0  0  0  0  0  0  0
    4.8264  -59.4374   10.2892 C   0  0  0  0  0  0  0  0  0  0  0  0
  1  2  1  0
  2  3  1  0
  3  4  2  0
  3  8  1  0
  4  5  1  0
  5  6  2  0
  6  7  1  0
  6  9  1  0
  7  8  2  0
  9 10  1  0
  9 25  2  0
 10 11  1  0
 10 22  2  0
 11 12  2  0
 11 21  1  0
 12 13  1  0
 13 14  2  0
 14 15  1  0
 14 20  1  0
 15 16  2  0
 15 19  1  0
 16 17  1  0
 17 18  1  0
 18 19  2  0
 20 21  2  0
 22 23  1  0
 23 24  2  0
 23 26  1  0
 24 25  1  0
 26 27  1  0
 28 27  1  6
 28 29  1  0
 28 33  1  0
 29 30  1  0
 30 31  1  0
 31 32  1  0
 32 33  1  0
M  CHG  2   1   1  31   1
M  END
$$$$
