
     RDKit          3D

 33 37  0  0  0  0  0  0  0  0999 V2000
   -0.5603  -59.8403   16.1480 N   0  0  0  0  0  4  0  0  0  0  0  0
   -0.3410  -60.1021   14.7167 C   0  0  0  0  0  0  0  0  0  0  0  0
    1.1021  -60.3948   14.5213 C   0  0  0  0  0  0  0  0  0  0  0  0
    2.0262  -59.3982   14.7147 C   0  0  0  0  0  0  0  0  0  0  0  0
    3.3870  -59.6472   14.5383 C   0  0  0  0  0  0  0  0  0  0  0  0
    3.8475  -60.8898   14.1676 C   0  0  0  0  0  0  0  0  0  0  0  0
    2.8970  -61.8680   13.9812 C   0  0  0  0  0  0  0  0  0  0  0  0
    1.5465  -61.6424   14.1504 C   0  0  0  0  0  0  0  0  0  0  0  0
    5.2792  -61.0821   14.0033 C   0  0  0  0  0  0  0  0  0  0  0  0
    6.1731  -60.7265   15.0121 C   0  0  0  0  0  0  0  0  0  0  0  0
    5.5842  -60.1592   16.2157 C   0  0  0  0  0  0  0  0  0  0  0  0
    4.6937  -60.8518   16.9971 C   0  0  0  0  0  0  0  0  0  0  0  0
    4.1632  -60.2486   18.1403 C   0  0  0  0  0  0  0  0  0  0  0  0
    4.5177  -58.9659   18.5010 C   0  0  0  0  0  0  0  0  0  0  0  0
    3.9952  -58.2883   19.6823 C   0  0  0  0  0  0  0  0  0  0  0  0
    3.0440  -58.7890   20.5382 C   0  0  0  0  0  0  0  0  0  0  0  0
    2.7847  -57.9475   21.5006 O   0  0  0  0  0  0  0  0  0  0  0  0
    3.5294  -56.9014   21.3182 C   0  0  0  0  0  0  0  0  0  0  0  0
    4.3248  -57.0489   20.1805 C   0  0  0  0  0  0  0  0  0  0  0  0
    5.4140  -58.3032   17.6916 C   0  0  0  0  0  0  0  0  0  0  0  0
    5.9336  -58.8847   16.5782 C   0  0  0  0  0  0  0  0  0  0  0  0
    7.4956  -60.9018   14.8650 N   0  0  0  0  0  0  0  0  0  0  0  0
    8.0456  -61.4188   13.7657 C   0  0  0  0  0  0  0  0  0  0  0  0
    7.1394  -61.7748   12.7531 C   0  0  0  0  0  0  0  0  0  0  0  0
    5.8168  -61.6050   12.8873 N   0  0  0  0  0  0  0  0  0  0  0  0
    9.3919  -61.6256   13.5464 O   0  0  0  0  0  0  0  0  0  0  0  0
   10.1982  -62.2023   14.5134 C   0  0  0  0  0  0  0  0  0  0  0  0
   11.0329  -63.3011   13.9224 C   0  0  1  0  0  0  0  0  0  0  0  0
   12.4920  -63.0053   14.2583 C   0  0  0  0  0  0  0  0  0  0  0  0
   12.7870  -63.3004   15.6889 C   0  0  0  0  0  0  0  0  0  0  0  0
   12.6170  -64.6797   15.9983 N   0  0  0  0  0  4  0  0  0  0  0  0
   11.8870  -65.3759   14.9806 C   0  0  0  0  0  0  0  0  0  0  0  0
   10.6378  -64.5956   14.6369 C   0  0  0  0  0  0  0  0  0  0  0  0
  1  2  1  0
  2  3  1  0
  3  4  2  0
  3  8  1  0
  4  5  1  0
  5  6  2  0
  6  7  1  0
  6  9  1  0
  7  8  2  0
  9 10  1  0
  9 25  2  0
 10 11  1  0
 10 22  2  0
 11 12  2  0
 11 21  1  0
 12 13  1  0
 13 14  2  0
 14 15  1  0
 14 20  1  0
 15 16  2  0
 15 19  1  0
 16 17  1  0
 17 18  1  0
 18 19  2  0
 20 21  2  0
 22 23  1  0
 23 24  2  0
 23 26  1  0
 24 25  1  0
 26 27  1  0
 28 27  1  1
 28 29  1  0
 28 33  1  0
 29 30  1  0
 30 31  1  0
 31 32  1  0
 32 33  1  0
M  CHG  2   1   1  31   1
M  END
$$$$
