
     RDKit          3D

 33 37  0  0  0  0  0  0  0  0999 V2000
   -1.9097  -60.4957   14.5144 N   0  0  0  0  0  4  0  0  0  0  0  0
   -0.8701  -60.3773   15.5791 C   0  0  0  0  0  0  0  0  0  0  0  0
    0.4794  -60.5667   14.9441 C   0  0  0  0  0  0  0  0  0  0  0  0
    1.4171  -61.3442   15.6006 C   0  0  0  0  0  0  0  0  0  0  0  0
    2.6819  -61.5278   15.0149 C   0  0  0  0  0  0  0  0  0  0  0  0
    2.9841  -60.9458   13.8113 C   0  0  0  0  0  0  0  0  0  0  0  0
    2.0357  -60.1846   13.1904 C   0  0  0  0  0  0  0  0  0  0  0  0
    0.7705  -59.9863   13.7510 C   0  0  0  0  0  0  0  0  0  0  0  0
    4.2799  -61.1303   13.2033 C   0  0  0  0  0  0  0  0  0  0  0  0
    5.4239  -60.8787   13.9354 C   0  0  0  0  0  0  0  0  0  0  0  0
    5.3147  -60.4270   15.3052 C   0  0  0  0  0  0  0  0  0  0  0  0
    5.8273  -61.1516   16.3554 C   0  0  0  0  0  0  0  0  0  0  0  0
    5.7121  -60.6948   17.6733 C   0  0  0  0  0  0  0  0  0  0  0  0
    5.0894  -59.5188   17.9635 C   0  0  0  0  0  0  0  0  0  0  0  0
    4.9621  -59.0267   19.3394 C   0  0  0  0  0  0  0  0  0  0  0  0
    4.9250  -57.7310   19.8042 C   0  0  0  0  0  0  0  0  0  0  0  0
    4.8007  -57.7472   21.1227 O   0  0  0  0  0  0  0  0  0  0  0  0
    4.7520  -58.9747   21.5733 C   0  0  0  0  0  0  0  0  0  0  0  0
    4.8514  -59.8047   20.4730 C   0  0  0  0  0  0  0  0  0  0  0  0
    4.5683  -58.7812   16.9036 C   0  0  0  0  0  0  0  0  0  0  0  0
    4.6921  -59.2489   15.6086 C   0  0  0  0  0  0  0  0  0  0  0  0
    6.6151  -61.0680   13.3220 N   0  0  0  0  0  0  0  0  0  0  0  0
    6.7402  -61.4773   12.0707 C   0  0  0  0  0  0  0  0  0  0  0  0
    5.6049  -61.7295   11.3359 C   0  0  0  0  0  0  0  0  0  0  0  0
    4.4206  -61.5476   11.9266 N   0  0  0  0  0  0  0  0  0  0  0  0
    7.9880  -61.6464   11.5177 O   0  0  0  0  0  0  0  0  0  0  0  0
    8.3227  -61.5134   10.1705 C   0  0  0  0  0  0  0  0  0  0  0  0
    8.2648  -60.0959    9.6800 C   0  0  1  0  0  0  0  0  0  0  0  0
    9.2605  -59.2094   10.3592 C   0  0  0  0  0  0  0  0  0  0  0  0
   10.2131  -58.5868    9.3848 C   0  0  0  0  0  0  0  0  0  0  0  0
   10.8535  -59.5797    8.5418 N   0  0  0  0  0  4  0  0  0  0  0  0
    9.9120  -60.4451    7.9019 C   0  0  0  0  0  0  0  0  0  0  0  0
    8.4800  -60.0287    8.1655 C   0  0  0  0  0  0  0  0  0  0  0  0
  1  2  1  6
  2  3  1  6
  3  4  2  0
  3  8  1  0
  4  5  1  0
  5  6  2  0
  6  7  1  0
  6  9  1  0
  7  8  2  0
  9 10  1  0
  9 25  2  0
 10 11  1  0
 10 22  2  0
 11 12  2  0
 11 21  1  0
 12 13  1  0
 13 14  2  0
 14 15  1  0
 14 20  1  0
 15 16  2  0
 15 19  1  0
 16 17  1  0
 17 18  1  0
 18 19  2  0
 20 21  2  0
 22 23  1  0
 23 24  2  0
 23 26  1  0
 24 25  1  0
 27 26  1  1
 28 27  1  1
 29 28  1  1
 28 33  1  0
 30 29  1  1
 31 30  1  1
 32 31  1  1
 33 32  1  6
M  CHG  2   1   1  31   1
M  END
$$$$
