
     RDKit          3D

 33 37  0  0  0  0  0  0  0  0999 V2000
    8.5113  -63.4336   20.8209 N   0  0  0  0  0  4  0  0  0  0  0  0
    9.2297  -64.1554   19.7587 C   0  0  0  0  0  0  0  0  0  0  0  0
    8.6239  -63.7749   18.4569 C   0  0  0  0  0  0  0  0  0  0  0  0
    9.4382  -63.5160   17.3825 C   0  0  0  0  0  0  0  0  0  0  0  0
    8.8946  -63.1575   16.1493 C   0  0  0  0  0  0  0  0  0  0  0  0
    7.5348  -63.0515   15.9675 C   0  0  0  0  0  0  0  0  0  0  0  0
    6.7448  -63.3170   17.0632 C   0  0  0  0  0  0  0  0  0  0  0  0
    7.2624  -63.6731   18.2914 C   0  0  0  0  0  0  0  0  0  0  0  0
    7.0342  -62.6757   14.6552 C   0  0  0  0  0  0  0  0  0  0  0  0
    6.2623  -61.5280   14.4815 C   0  0  0  0  0  0  0  0  0  0  0  0
    5.9969  -60.7497   15.6819 C   0  0  0  0  0  0  0  0  0  0  0  0
    4.7517  -60.6802   16.2547 C   0  0  0  0  0  0  0  0  0  0  0  0
    4.5633  -59.9132   17.4072 C   0  0  0  0  0  0  0  0  0  0  0  0
    5.6076  -59.2215   17.9835 C   0  0  0  0  0  0  0  0  0  0  0  0
    5.4677  -58.4064   19.1850 C   0  0  0  0  0  0  0  0  0  0  0  0
    4.3587  -58.3566   19.9949 C   0  0  0  0  0  0  0  0  0  0  0  0
    4.5380  -57.5343   20.9914 O   0  0  0  0  0  0  0  0  0  0  0  0
    5.7285  -57.0323   20.8763 C   0  0  0  0  0  0  0  0  0  0  0  0
    6.3769  -57.5422   19.7501 C   0  0  0  0  0  0  0  0  0  0  0  0
    6.8422  -59.3160   17.3796 C   0  0  0  0  0  0  0  0  0  0  0  0
    7.0317  -60.0606   16.2583 C   0  0  0  0  0  0  0  0  0  0  0  0
    5.7976  -61.1771   13.2722 N   0  0  0  0  0  0  0  0  0  0  0  0
    6.0333  -61.8841   12.1664 C   0  0  0  0  0  0  0  0  0  0  0  0
    6.8115  -63.0393   12.3484 C   0  0  0  0  0  0  0  0  0  0  0  0
    7.2815  -63.4008   13.5503 N   0  0  0  0  0  0  0  0  0  0  0  0
    5.5878  -61.5844   10.8955 O   0  0  0  0  0  0  0  0  0  0  0  0
    5.8799  -60.3694   10.2985 C   0  0  0  0  0  0  0  0  0  0  0  0
    7.2337  -60.4078    9.6512 C   0  0  1  0  0  0  0  0  0  0  0  0
    7.1372  -61.3188    8.4305 C   0  0  0  0  0  0  0  0  0  0  0  0
    6.4180  -60.6472    7.3114 C   0  0  0  0  0  0  0  0  0  0  0  0
    7.1081  -59.4918    6.8468 N   0  0  0  0  0  4  0  0  0  0  0  0
    8.1191  -59.0601    7.7661 C   0  0  0  0  0  0  0  0  0  0  0  0
    7.5336  -58.9901    9.1587 C   0  0  0  0  0  0  0  0  0  0  0  0
  1  2  1  0
  2  3  1  0
  3  4  2  0
  3  8  1  0
  4  5  1  0
  5  6  2  0
  6  7  1  0
  6  9  1  0
  7  8  2  0
  9 10  1  0
  9 25  2  0
 10 11  1  0
 10 22  2  0
 11 12  2  0
 11 21  1  0
 12 13  1  0
 13 14  2  0
 14 15  1  0
 14 20  1  0
 15 16  2  0
 15 19  1  0
 16 17  1  0
 17 18  1  0
 18 19  2  0
 20 21  2  0
 22 23  1  0
 23 24  2  0
 23 26  1  0
 24 25  1  0
 26 27  1  0
 28 27  1  6
 28 29  1  0
 28 33  1  0
 29 30  1  0
 30 31  1  0
 31 32  1  0
 32 33  1  0
M  CHG  2   1   1  31   1
M  END
$$$$
