
     RDKit          3D

 33 37  0  0  0  0  0  0  0  0999 V2000
    0.0966  -63.0607   11.8473 N   0  0  0  0  0  4  0  0  0  0  0  0
    0.4325  -61.8098   12.5895 C   0  0  0  0  0  0  0  0  0  0  0  0
    1.9224  -61.7625   12.7848 C   0  0  0  0  0  0  0  0  0  0  0  0
    2.5323  -62.7920   13.4797 C   0  0  0  0  0  0  0  0  0  0  0  0
    3.9252  -62.7573   13.6675 C   0  0  0  0  0  0  0  0  0  0  0  0
    4.6701  -61.7197   13.1704 C   0  0  0  0  0  0  0  0  0  0  0  0
    4.0365  -60.7199   12.4895 C   0  0  0  0  0  0  0  0  0  0  0  0
    2.6530  -60.7304   12.2889 C   0  0  0  0  0  0  0  0  0  0  0  0
    6.1004  -61.6774   13.3582 C   0  0  0  0  0  0  0  0  0  0  0  0
    6.6359  -61.9148   14.6091 C   0  0  0  0  0  0  0  0  0  0  0  0
    5.7585  -62.1992   15.7234 C   0  0  0  0  0  0  0  0  0  0  0  0
    5.8595  -63.3598   16.4537 C   0  0  0  0  0  0  0  0  0  0  0  0
    5.0012  -63.6138   17.5296 C   0  0  0  0  0  0  0  0  0  0  0  0
    4.0366  -62.7233   17.8919 C   0  0  0  0  0  0  0  0  0  0  0  0
    3.1307  -62.9752   19.0176 C   0  0  0  0  0  0  0  0  0  0  0  0
    2.0794  -62.2156   19.4802 C   0  0  0  0  0  0  0  0  0  0  0  0
    1.5334  -62.8216   20.5236 O   0  0  0  0  0  0  0  0  0  0  0  0
    2.1531  -63.9424   20.7912 C   0  0  0  0  0  0  0  0  0  0  0  0
    3.1655  -64.0675   19.8591 C   0  0  0  0  0  0  0  0  0  0  0  0
    3.9300  -61.5463   17.1553 C   0  0  0  0  0  0  0  0  0  0  0  0
    4.7871  -61.3133   16.0960 C   0  0  0  0  0  0  0  0  0  0  0  0
    7.9824  -61.8659   14.7342 N   0  0  0  0  0  0  0  0  0  0  0  0
    8.8044  -61.6052   13.7316 C   0  0  0  0  0  0  0  0  0  0  0  0
    8.2776  -61.3677   12.4831 C   0  0  0  0  0  0  0  0  0  0  0  0
    6.9499  -61.4123   12.3423 N   0  0  0  0  0  0  0  0  0  0  0  0
   10.1635  -61.5733   13.9392 O   0  0  0  0  0  0  0  0  0  0  0  0
   11.0639  -62.6102   13.6960 C   0  0  0  0  0  0  0  0  0  0  0  0
   11.6207  -63.2210   14.9490 C   0  0  1  0  0  0  0  0  0  0  0  0
   12.5761  -64.3383   14.6707 C   0  0  0  0  0  0  0  0  0  0  0  0
   13.9354  -64.0683   15.2401 C   0  0  0  0  0  0  0  0  0  0  0  0
   14.4586  -62.7844   14.8105 N   0  0  0  0  0  4  0  0  0  0  0  0
   13.5458  -61.7110   15.0544 C   0  0  0  0  0  0  0  0  0  0  0  0
   12.3165  -62.1656   15.8132 C   0  0  0  0  0  0  0  0  0  0  0  0
  1  2  1  6
  2  3  1  6
  3  4  2  0
  3  8  1  0
  4  5  1  0
  5  6  2  0
  6  7  1  0
  6  9  1  0
  7  8  2  0
  9 10  1  0
  9 25  2  0
 10 11  1  0
 10 22  2  0
 11 12  2  0
 11 21  1  0
 12 13  1  0
 13 14  2  0
 14 15  1  0
 14 20  1  0
 15 16  2  0
 15 19  1  0
 16 17  1  0
 17 18  1  0
 18 19  2  0
 20 21  2  0
 22 23  1  0
 23 24  2  0
 23 26  1  0
 24 25  1  0
 27 26  1  1
 28 27  1  6
 29 28  1  1
 28 33  1  0
 30 29  1  1
 31 30  1  1
 32 31  1  1
 33 32  1  6
M  CHG  2   1   1  31   1
M  END
$$$$
