
     RDKit          3D

 33 37  0  0  0  0  0  0  0  0999 V2000
    1.4712  -68.3168   18.6152 N   0  0  0  0  0  4  0  0  0  0  0  0
    2.4156  -67.3480   19.1939 C   0  0  0  0  0  0  0  0  0  0  0  0
    2.8080  -66.3962   18.1231 C   0  0  0  0  0  0  0  0  0  0  0  0
    2.1342  -65.2069   17.9958 C   0  0  0  0  0  0  0  0  0  0  0  0
    2.4834  -64.2959   16.9993 C   0  0  0  0  0  0  0  0  0  0  0  0
    3.5065  -64.5546   16.1164 C   0  0  0  0  0  0  0  0  0  0  0  0
    4.1629  -65.7550   16.2694 C   0  0  0  0  0  0  0  0  0  0  0  0
    3.8332  -66.6697   17.2481 C   0  0  0  0  0  0  0  0  0  0  0  0
    3.8205  -63.5607   15.1027 C   0  0  0  0  0  0  0  0  0  0  0  0
    4.1937  -62.2651   15.4570 C   0  0  0  0  0  0  0  0  0  0  0  0
    4.2440  -61.9831   16.8835 C   0  0  0  0  0  0  0  0  0  0  0  0
    5.0362  -62.6961   17.7480 C   0  0  0  0  0  0  0  0  0  0  0  0
    5.0375  -62.3755   19.1079 C   0  0  0  0  0  0  0  0  0  0  0  0
    4.2555  -61.3527   19.6014 C   0  0  0  0  0  0  0  0  0  0  0  0
    4.2178  -60.9756   21.0100 C   0  0  0  0  0  0  0  0  0  0  0  0
    5.1284  -61.3564   21.9660 C   0  0  0  0  0  0  0  0  0  0  0  0
    4.8241  -60.8591   23.1328 O   0  0  0  0  0  0  0  0  0  0  0  0
    3.7416  -60.1589   22.9905 C   0  0  0  0  0  0  0  0  0  0  0  0
    3.3001  -60.1885   21.6665 C   0  0  0  0  0  0  0  0  0  0  0  0
    3.4740  -60.6602   18.7027 C   0  0  0  0  0  0  0  0  0  0  0  0
    3.4685  -60.9675   17.3786 C   0  0  0  0  0  0  0  0  0  0  0  0
    4.4841  -61.3441   14.5249 N   0  0  0  0  0  0  0  0  0  0  0  0
    4.4392  -61.5915   13.2154 C   0  0  0  0  0  0  0  0  0  0  0  0
    4.0624  -62.8987   12.8652 C   0  0  0  0  0  0  0  0  0  0  0  0
    3.7699  -63.8276   13.7859 N   0  0  0  0  0  0  0  0  0  0  0  0
    4.7226  -60.6955   12.2052 O   0  0  0  0  0  0  0  0  0  0  0  0
    5.6658  -60.9823   11.2326 C   0  0  0  0  0  0  0  0  0  0  0  0
    6.6218  -59.8372   11.0660 C   0  0  1  0  0  0  0  0  0  0  0  0
    7.7427  -60.3011   10.1400 C   0  0  0  0  0  0  0  0  0  0  0  0
    7.2822  -60.3628    8.7241 C   0  0  0  0  0  0  0  0  0  0  0  0
    6.9076  -59.0829    8.2255 N   0  0  0  0  0  4  0  0  0  0  0  0
    6.7334  -58.1236    9.2757 C   0  0  0  0  0  0  0  0  0  0  0  0
    5.8575  -58.7170   10.3564 C   0  0  0  0  0  0  0  0  0  0  0  0
  1  2  1  0
  2  3  1  0
  3  4  2  0
  3  8  1  0
  4  5  1  0
  5  6  2  0
  6  7  1  0
  6  9  1  0
  7  8  2  0
  9 10  1  0
  9 25  2  0
 10 11  1  0
 10 22  2  0
 11 12  2  0
 11 21  1  0
 12 13  1  0
 13 14  2  0
 14 15  1  0
 14 20  1  0
 15 16  2  0
 15 19  1  0
 16 17  1  0
 17 18  1  0
 18 19  2  0
 20 21  2  0
 22 23  1  0
 23 24  2  0
 23 26  1  0
 24 25  1  0
 26 27  1  0
 28 27  1  6
 28 29  1  0
 28 33  1  0
 29 30  1  0
 30 31  1  0
 31 32  1  0
 32 33  1  0
M  CHG  2   1   1  31   1
M  END
$$$$
