
     RDKit          3D

 33 37  0  0  0  0  0  0  0  0999 V2000
   -0.7139  -59.1344   14.4735 N   0  0  0  0  0  4  0  0  0  0  0  0
   -0.1095  -59.0578   15.8129 C   0  0  0  0  0  0  0  0  0  0  0  0
    1.2408  -59.6727   15.7412 C   0  0  0  0  0  0  0  0  0  0  0  0
    1.3970  -60.8906   15.1274 C   0  0  0  0  0  0  0  0  0  0  0  0
    2.6541  -61.4890   15.0461 C   0  0  0  0  0  0  0  0  0  0  0  0
    3.7723  -60.8852   15.5737 C   0  0  0  0  0  0  0  0  0  0  0  0
    3.5836  -59.6651   16.1827 C   0  0  0  0  0  0  0  0  0  0  0  0
    2.3489  -59.0562   16.2737 C   0  0  0  0  0  0  0  0  0  0  0  0
    5.0531  -61.5626   15.4524 C   0  0  0  0  0  0  0  0  0  0  0  0
    5.6164  -61.8176   14.2031 C   0  0  0  0  0  0  0  0  0  0  0  0
    4.8470  -61.3687   13.0526 C   0  0  0  0  0  0  0  0  0  0  0  0
    4.5341  -60.0487   12.8450 C   0  0  0  0  0  0  0  0  0  0  0  0
    3.7903  -59.6838   11.7199 C   0  0  0  0  0  0  0  0  0  0  0  0
    3.3622  -60.6271   10.8099 C   0  0  0  0  0  0  0  0  0  0  0  0
    2.5838  -60.3025    9.6197 C   0  0  0  0  0  0  0  0  0  0  0  0
    1.9069  -61.2043    8.8345 C   0  0  0  0  0  0  0  0  0  0  0  0
    1.3060  -60.6086    7.8418 O   0  0  0  0  0  0  0  0  0  0  0  0
    1.5574  -59.3397    7.9357 C   0  0  0  0  0  0  0  0  0  0  0  0
    2.3645  -59.0728    9.0431 C   0  0  0  0  0  0  0  0  0  0  0  0
    3.6960  -61.9414   11.0527 C   0  0  0  0  0  0  0  0  0  0  0  0
    4.4194  -62.3026   12.1454 C   0  0  0  0  0  0  0  0  0  0  0  0
    6.7982  -62.4428   14.0860 N   0  0  0  0  0  0  0  0  0  0  0  0
    7.5103  -62.8598   15.1335 C   0  0  0  0  0  0  0  0  0  0  0  0
    6.9370  -62.6000   16.3894 C   0  0  0  0  0  0  0  0  0  0  0  0
    5.7578  -61.9765   16.5200 N   0  0  0  0  0  0  0  0  0  0  0  0
    8.7274  -63.5079   15.0873 O   0  0  0  0  0  0  0  0  0  0  0  0
    9.9135  -62.8280   15.3082 C   0  0  0  0  0  0  0  0  0  0  0  0
   11.0415  -63.4692   14.5535 C   0  0  1  0  0  0  0  0  0  0  0  0
   12.1939  -62.4697   14.5065 C   0  0  0  0  0  0  0  0  0  0  0  0
   12.8835  -62.3788   15.8245 C   0  0  0  0  0  0  0  0  0  0  0  0
   13.4891  -63.6115   16.1994 N   0  0  0  0  0  4  0  0  0  0  0  0
   13.0101  -64.7100   15.4135 C   0  0  0  0  0  0  0  0  0  0  0  0
   11.4986  -64.6772   15.3748 C   0  0  0  0  0  0  0  0  0  0  0  0
  1  2  1  0
  2  3  1  0
  3  4  2  0
  3  8  1  0
  4  5  1  0
  5  6  2  0
  6  7  1  0
  6  9  1  0
  7  8  2  0
  9 10  1  0
  9 25  2  0
 10 11  1  0
 10 22  2  0
 11 12  2  0
 11 21  1  0
 12 13  1  0
 13 14  2  0
 14 15  1  0
 14 20  1  0
 15 16  2  0
 15 19  1  0
 16 17  1  0
 17 18  1  0
 18 19  2  0
 20 21  2  0
 22 23  1  0
 23 24  2  0
 23 26  1  0
 24 25  1  0
 26 27  1  0
 28 27  1  1
 28 29  1  0
 28 33  1  0
 29 30  1  0
 30 31  1  0
 31 32  1  0
 32 33  1  0
M  CHG  2   1   1  31   1
M  END
$$$$
