
     RDKit          3D

 33 37  0  0  0  0  0  0  0  0999 V2000
    4.5425  -64.4094   21.1986 N   0  0  0  0  0  4  0  0  0  0  0  0
    5.2458  -65.2846   20.2148 C   0  0  0  0  0  0  0  0  0  0  0  0
    5.3474  -64.5427   18.9112 C   0  0  0  0  0  0  0  0  0  0  0  0
    6.3052  -63.5519   18.7859 C   0  0  0  0  0  0  0  0  0  0  0  0
    6.4086  -62.8525   17.5707 C   0  0  0  0  0  0  0  0  0  0  0  0
    5.5737  -63.1460   16.5241 C   0  0  0  0  0  0  0  0  0  0  0  0
    4.6396  -64.1295   16.6814 C   0  0  0  0  0  0  0  0  0  0  0  0
    4.5160  -64.8400   17.8790 C   0  0  0  0  0  0  0  0  0  0  0  0
    5.6742  -62.4332   15.2732 C   0  0  0  0  0  0  0  0  0  0  0  0
    6.8342  -62.5150   14.5278 C   0  0  0  0  0  0  0  0  0  0  0  0
    7.9421  -63.3108   15.0088 C   0  0  0  0  0  0  0  0  0  0  0  0
    9.2191  -62.8081   15.0929 C   0  0  0  0  0  0  0  0  0  0  0  0
   10.2764  -63.5954   15.5633 C   0  0  0  0  0  0  0  0  0  0  0  0
   10.0799  -64.8852   15.9540 C   0  0  0  0  0  0  0  0  0  0  0  0
   11.1777  -65.7219   16.4502 C   0  0  0  0  0  0  0  0  0  0  0  0
   11.1882  -67.0679   16.7406 C   0  0  0  0  0  0  0  0  0  0  0  0
   12.3957  -67.4104   17.1632 O   0  0  0  0  0  0  0  0  0  0  0  0
   13.1982  -66.3771   17.1750 C   0  0  0  0  0  0  0  0  0  0  0  0
   12.4596  -65.2970   16.7306 C   0  0  0  0  0  0  0  0  0  0  0  0
    8.7884  -65.3992   15.8707 C   0  0  0  0  0  0  0  0  0  0  0  0
    7.7571  -64.6059   15.4036 C   0  0  0  0  0  0  0  0  0  0  0  0
    6.8795  -61.8303   13.3614 N   0  0  0  0  0  0  0  0  0  0  0  0
    5.8812  -61.0942   12.9024 C   0  0  0  0  0  0  0  0  0  0  0  0
    4.7232  -61.0084   13.6401 C   0  0  0  0  0  0  0  0  0  0  0  0
    4.6620  -61.6784   14.7942 N   0  0  0  0  0  0  0  0  0  0  0  0
    6.0042  -60.4272   11.7061 O   0  0  0  0  0  0  0  0  0  0  0  0
    7.1909  -60.1603   11.0239 C   0  0  0  0  0  0  0  0  0  0  0  0
    7.4775  -61.1395    9.9229 C   0  0  1  0  0  0  0  0  0  0  0  0
    6.3699  -61.2204    8.9202 C   0  0  0  0  0  0  0  0  0  0  0  0
    6.8355  -60.8662    7.5409 C   0  0  0  0  0  0  0  0  0  0  0  0
    7.5070  -59.5799    7.5083 N   0  0  0  0  0  4  0  0  0  0  0  0
    8.5557  -59.4842    8.4756 C   0  0  0  0  0  0  0  0  0  0  0  0
    8.7842  -60.7921    9.2042 C   0  0  0  0  0  0  0  0  0  0  0  0
  1  2  1  6
  2  3  1  6
  3  4  2  0
  3  8  1  0
  4  5  1  0
  5  6  2  0
  6  7  1  0
  6  9  1  0
  7  8  2  0
  9 10  1  0
  9 25  2  0
 10 11  1  0
 10 22  2  0
 11 12  2  0
 11 21  1  0
 12 13  1  0
 13 14  2  0
 14 15  1  0
 14 20  1  0
 15 16  2  0
 15 19  1  0
 16 17  1  0
 17 18  1  0
 18 19  2  0
 20 21  2  0
 22 23  1  0
 23 24  2  0
 23 26  1  0
 24 25  1  0
 27 26  1  1
 28 27  1  1
 29 28  1  1
 28 33  1  0
 30 29  1  1
 31 30  1  1
 32 31  1  1
 33 32  1  6
M  CHG  2   1   1  31   1
M  END
$$$$
