
     RDKit          3D

 33 37  0  0  0  0  0  0  0  0999 V2000
    5.0562  -69.8203   12.7488 N   0  0  0  0  0  4  0  0  0  0  0  0
    3.8982  -68.9985   12.2881 C   0  0  0  0  0  0  0  0  0  0  0  0
    4.1796  -67.5592   12.6190 C   0  0  0  0  0  0  0  0  0  0  0  0
    4.2970  -66.6517   11.5810 C   0  0  0  0  0  0  0  0  0  0  0  0
    4.5597  -65.3033   11.8799 C   0  0  0  0  0  0  0  0  0  0  0  0
    4.6980  -64.8915   13.1799 C   0  0  0  0  0  0  0  0  0  0  0  0
    4.5762  -65.8130   14.1801 C   0  0  0  0  0  0  0  0  0  0  0  0
    4.3152  -67.1596   13.9100 C   0  0  0  0  0  0  0  0  0  0  0  0
    4.9668  -63.5089   13.4948 C   0  0  0  0  0  0  0  0  0  0  0  0
    5.8181  -63.1950   14.5363 C   0  0  0  0  0  0  0  0  0  0  0  0
    6.4304  -64.2547   15.3073 C   0  0  0  0  0  0  0  0  0  0  0  0
    5.9625  -64.6182   16.5480 C   0  0  0  0  0  0  0  0  0  0  0  0
    6.5690  -65.6481   17.2762 C   0  0  0  0  0  0  0  0  0  0  0  0
    7.6425  -66.3265   16.7840 C   0  0  0  0  0  0  0  0  0  0  0  0
    8.2878  -67.4087   17.5349 C   0  0  0  0  0  0  0  0  0  0  0  0
    9.3194  -68.2394   17.1582 C   0  0  0  0  0  0  0  0  0  0  0  0
    9.5862  -69.0758   18.1498 O   0  0  0  0  0  0  0  0  0  0  0  0
    8.7970  -68.8585   19.1706 C   0  0  0  0  0  0  0  0  0  0  0  0
    7.9667  -67.8132   18.8138 C   0  0  0  0  0  0  0  0  0  0  0  0
    8.1205  -65.9622   15.5278 C   0  0  0  0  0  0  0  0  0  0  0  0
    7.5078  -64.9424   14.8238 C   0  0  0  0  0  0  0  0  0  0  0  0
    6.0401  -61.8848   14.7915 N   0  0  0  0  0  0  0  0  0  0  0  0
    5.4899  -60.8987   14.1029 C   0  0  0  0  0  0  0  0  0  0  0  0
    4.6410  -61.2044   13.0645 C   0  0  0  0  0  0  0  0  0  0  0  0
    4.4111  -62.4934   12.7992 N   0  0  0  0  0  0  0  0  0  0  0  0
    5.7657  -59.5903   14.4241 O   0  0  0  0  0  0  0  0  0  0  0  0
    6.8776  -59.1256   15.1261 C   0  0  0  0  0  0  0  0  0  0  0  0
    6.6551  -59.0469   16.6085 C   0  0  1  0  0  0  0  0  0  0  0  0
    7.9214  -58.8120   17.3701 C   0  0  0  0  0  0  0  0  0  0  0  0
    7.8653  -57.5497   18.1752 C   0  0  0  0  0  0  0  0  0  0  0  0
    7.4972  -56.4041   17.3635 N   0  0  0  0  0  4  0  0  0  0  0  0
    6.2981  -56.6241   16.6163 C   0  0  0  0  0  0  0  0  0  0  0  0
    5.6464  -57.9484   16.9557 C   0  0  0  0  0  0  0  0  0  0  0  0
  1  2  1  6
  2  3  1  6
  3  4  2  0
  3  8  1  0
  4  5  1  0
  5  6  2  0
  6  7  1  0
  6  9  1  0
  7  8  2  0
  9 10  1  0
  9 25  2  0
 10 11  1  0
 10 22  2  0
 11 12  2  0
 11 21  1  0
 12 13  1  0
 13 14  2  0
 14 15  1  0
 14 20  1  0
 15 16  2  0
 15 19  1  0
 16 17  1  0
 17 18  1  0
 18 19  2  0
 20 21  2  0
 22 23  1  0
 23 24  2  0
 23 26  1  0
 24 25  1  0
 27 26  1  1
 28 27  1  6
 29 28  1  1
 28 33  1  0
 30 29  1  1
 31 30  1  1
 32 31  1  1
 33 32  1  6
M  CHG  2   1   1  31   1
M  END
$$$$
