
     RDKit          3D

 33 37  0  0  0  0  0  0  0  0999 V2000
    1.7702  -59.3505    9.4380 N   0  0  0  0  0  4  0  0  0  0  0  0
    1.8253  -59.3536   10.9085 C   0  0  0  0  0  0  0  0  0  0  0  0
    3.0969  -60.0035   11.3171 C   0  0  0  0  0  0  0  0  0  0  0  0
    3.3773  -61.2743   10.8800 C   0  0  0  0  0  0  0  0  0  0  0  0
    4.5645  -61.9065   11.2487 C   0  0  0  0  0  0  0  0  0  0  0  0
    5.4885  -61.2843   12.0565 C   0  0  0  0  0  0  0  0  0  0  0  0
    5.1789  -60.0110   12.4785 C   0  0  0  0  0  0  0  0  0  0  0  0
    4.0104  -59.3681   12.1253 C   0  0  0  0  0  0  0  0  0  0  0  0
    6.7067  -61.9992   12.4010 C   0  0  0  0  0  0  0  0  0  0  0  0
    7.1436  -62.0809   13.7222 C   0  0  0  0  0  0  0  0  0  0  0  0
    6.3122  -61.4122   14.7116 C   0  0  0  0  0  0  0  0  0  0  0  0
    5.0667  -61.8718   15.0592 C   0  0  0  0  0  0  0  0  0  0  0  0
    4.3181  -61.1820   16.0162 C   0  0  0  0  0  0  0  0  0  0  0  0
    4.8073  -60.0437   16.6213 C   0  0  0  0  0  0  0  0  0  0  0  0
    4.0696  -59.2850   17.6252 C   0  0  0  0  0  0  0  0  0  0  0  0
    4.4263  -58.0542   18.1213 C   0  0  0  0  0  0  0  0  0  0  0  0
    3.5658  -57.6346   19.0073 O   0  0  0  0  0  0  0  0  0  0  0  0
    2.6460  -58.5420   19.1210 C   0  0  0  0  0  0  0  0  0  0  0  0
    2.9022  -59.6198   18.2716 C   0  0  0  0  0  0  0  0  0  0  0  0
    6.0612  -59.6137   16.2461 C   0  0  0  0  0  0  0  0  0  0  0  0
    6.7943  -60.2806   15.3157 C   0  0  0  0  0  0  0  0  0  0  0  0
    8.2676  -62.7394   14.0452 N   0  0  0  0  0  0  0  0  0  0  0  0
    9.0375  -63.3537   13.1462 C   0  0  0  0  0  0  0  0  0  0  0  0
    8.5918  -63.2675   11.8169 C   0  0  0  0  0  0  0  0  0  0  0  0
    7.4714  -62.6132   11.4811 N   0  0  0  0  0  0  0  0  0  0  0  0
   10.2025  -64.0456   13.4060 O   0  0  0  0  0  0  0  0  0  0  0  0
   11.3689  -63.3854   13.7547 C   0  0  0  0  0  0  0  0  0  0  0  0
   11.3887  -63.0832   15.2249 C   0  0  1  0  0  0  0  0  0  0  0  0
   11.6286  -64.3966   15.9641 C   0  0  0  0  0  0  0  0  0  0  0  0
   13.0496  -64.8300   15.8471 C   0  0  0  0  0  0  0  0  0  0  0  0
   13.9447  -63.9043   16.4546 N   0  0  0  0  0  4  0  0  0  0  0  0
   13.3197  -62.6420   16.7184 C   0  0  0  0  0  0  0  0  0  0  0  0
   12.5932  -62.1732   15.4776 C   0  0  0  0  0  0  0  0  0  0  0  0
  1  2  1  0
  2  3  1  0
  3  4  2  0
  3  8  1  0
  4  5  1  0
  5  6  2  0
  6  7  1  0
  6  9  1  0
  7  8  2  0
  9 10  1  0
  9 25  2  0
 10 11  1  0
 10 22  2  0
 11 12  2  0
 11 21  1  0
 12 13  1  0
 13 14  2  0
 14 15  1  0
 14 20  1  0
 15 16  2  0
 15 19  1  0
 16 17  1  0
 17 18  1  0
 18 19  2  0
 20 21  2  0
 22 23  1  0
 23 24  2  0
 23 26  1  0
 24 25  1  0
 26 27  1  0
 28 27  1  6
 28 29  1  0
 28 33  1  0
 29 30  1  0
 30 31  1  0
 31 32  1  0
 32 33  1  0
M  CHG  2   1   1  31   1
M  END
$$$$
