
     RDKit          3D

 33 37  0  0  0  0  0  0  0  0999 V2000
    5.4957  -62.8228   20.7934 N   0  0  0  0  0  4  0  0  0  0  0  0
    6.4432  -63.8272   20.2849 C   0  0  0  0  0  0  0  0  0  0  0  0
    6.6183  -63.5946   18.8283 C   0  0  0  0  0  0  0  0  0  0  0  0
    7.7608  -62.9840   18.3740 C   0  0  0  0  0  0  0  0  0  0  0  0
    7.9499  -62.7547   17.0114 C   0  0  0  0  0  0  0  0  0  0  0  0
    7.0063  -63.1291   16.0825 C   0  0  0  0  0  0  0  0  0  0  0  0
    5.8719  -63.7387   16.5688 C   0  0  0  0  0  0  0  0  0  0  0  0
    5.6655  -63.9747   17.9123 C   0  0  0  0  0  0  0  0  0  0  0  0
    7.2674  -62.8625   14.6773 C   0  0  0  0  0  0  0  0  0  0  0  0
    6.2880  -62.3050   13.8568 C   0  0  0  0  0  0  0  0  0  0  0  0
    5.0115  -62.0164   14.4927 C   0  0  0  0  0  0  0  0  0  0  0  0
    3.8241  -62.5198   14.0235 C   0  0  0  0  0  0  0  0  0  0  0  0
    2.6320  -62.2029   14.6798 C   0  0  0  0  0  0  0  0  0  0  0  0
    2.6242  -61.3911   15.7943 C   0  0  0  0  0  0  0  0  0  0  0  0
    1.4105  -61.0282   16.5175 C   0  0  0  0  0  0  0  0  0  0  0  0
    0.1333  -61.0726   16.0126 C   0  0  0  0  0  0  0  0  0  0  0  0
   -0.7397  -60.6867   16.9015 O   0  0  0  0  0  0  0  0  0  0  0  0
   -0.0909  -60.3857   17.9835 C   0  0  0  0  0  0  0  0  0  0  0  0
    1.2809  -60.5789   17.8114 C   0  0  0  0  0  0  0  0  0  0  0  0
    3.8356  -60.9053   16.2349 C   0  0  0  0  0  0  0  0  0  0  0  0
    4.9987  -61.2101   15.6007 C   0  0  0  0  0  0  0  0  0  0  0  0
    6.5242  -62.0574   12.5590 N   0  0  0  0  0  0  0  0  0  0  0  0
    7.6894  -62.3199   11.9661 C   0  0  0  0  0  0  0  0  0  0  0  0
    8.6719  -62.8816   12.7983 C   0  0  0  0  0  0  0  0  0  0  0  0
    8.4489  -63.1337   14.0956 N   0  0  0  0  0  0  0  0  0  0  0  0
    8.0004  -62.0934   10.6412 O   0  0  0  0  0  0  0  0  0  0  0  0
    7.1532  -61.3724    9.8164 C   0  0  0  0  0  0  0  0  0  0  0  0
    7.7078  -60.0028    9.5524 C   0  0  1  0  0  0  0  0  0  0  0  0
    8.8379  -60.1489    8.5372 C   0  0  0  0  0  0  0  0  0  0  0  0
    8.3046  -60.3976    7.1681 C   0  0  0  0  0  0  0  0  0  0  0  0
    7.5268  -59.3058    6.6887 N   0  0  0  0  0  4  0  0  0  0  0  0
    7.1594  -58.4020    7.7384 C   0  0  0  0  0  0  0  0  0  0  0  0
    6.5899  -59.1866    8.8991 C   0  0  0  0  0  0  0  0  0  0  0  0
  1  2  1  0
  2  3  1  0
  3  4  2  0
  3  8  1  0
  4  5  1  0
  5  6  2  0
  6  7  1  0
  6  9  1  0
  7  8  2  0
  9 10  1  0
  9 25  2  0
 10 11  1  0
 10 22  2  0
 11 12  2  0
 11 21  1  0
 12 13  1  0
 13 14  2  0
 14 15  1  0
 14 20  1  0
 15 16  2  0
 15 19  1  0
 16 17  1  0
 17 18  1  0
 18 19  2  0
 20 21  2  0
 22 23  1  0
 23 24  2  0
 23 26  1  0
 24 25  1  0
 26 27  1  0
 28 27  1  6
 28 29  1  0
 28 33  1  0
 29 30  1  0
 30 31  1  0
 31 32  1  0
 32 33  1  0
M  CHG  2   1   1  31   1
M  END
$$$$
