
     RDKit          3D

 33 37  0  0  0  0  0  0  0  0999 V2000
    7.4324  -56.9165   22.3942 N   0  0  0  0  0  4  0  0  0  0  0  0
    6.0642  -57.1658   21.9134 C   0  0  0  0  0  0  0  0  0  0  0  0
    6.1578  -57.7561   20.5535 C   0  0  0  0  0  0  0  0  0  0  0  0
    5.5762  -58.9744   20.3041 C   0  0  0  0  0  0  0  0  0  0  0  0
    5.6492  -59.5500   19.0360 C   0  0  0  0  0  0  0  0  0  0  0  0
    6.3010  -58.9228   17.9991 C   0  0  0  0  0  0  0  0  0  0  0  0
    6.8739  -57.7030   18.2802 C   0  0  0  0  0  0  0  0  0  0  0  0
    6.8131  -57.1164   19.5275 C   0  0  0  0  0  0  0  0  0  0  0  0
    6.3376  -59.5771   16.7013 C   0  0  0  0  0  0  0  0  0  0  0  0
    5.1708  -60.0432   16.0975 C   0  0  0  0  0  0  0  0  0  0  0  0
    3.9391  -59.8343   16.8435 C   0  0  0  0  0  0  0  0  0  0  0  0
    3.2959  -60.8513   17.5034 C   0  0  0  0  0  0  0  0  0  0  0  0
    2.1150  -60.5841   18.2007 C   0  0  0  0  0  0  0  0  0  0  0  0
    1.5802  -59.3139   18.2396 C   0  0  0  0  0  0  0  0  0  0  0  0
    0.3517  -58.9789   18.9511 C   0  0  0  0  0  0  0  0  0  0  0  0
   -0.5089  -59.8792   19.5317 C   0  0  0  0  0  0  0  0  0  0  0  0
   -1.5189  -59.2732   20.0921 O   0  0  0  0  0  0  0  0  0  0  0  0
   -1.3639  -57.9989   19.9065 C   0  0  0  0  0  0  0  0  0  0  0  0
   -0.1953  -57.7390   19.1883 C   0  0  0  0  0  0  0  0  0  0  0  0
    2.2546  -58.3198   17.5652 C   0  0  0  0  0  0  0  0  0  0  0  0
    3.4039  -58.5735   16.8851 C   0  0  0  0  0  0  0  0  0  0  0  0
    5.1996  -60.6482   14.8998 N   0  0  0  0  0  0  0  0  0  0  0  0
    6.3228  -60.8462   14.2089 C   0  0  0  0  0  0  0  0  0  0  0  0
    7.4949  -60.3745   14.8229 C   0  0  0  0  0  0  0  0  0  0  0  0
    7.4799  -59.7687   16.0183 N   0  0  0  0  0  0  0  0  0  0  0  0
    6.4262  -61.4597   12.9775 O   0  0  0  0  0  0  0  0  0  0  0  0
    5.4709  -61.2647   11.9940 C   0  0  0  0  0  0  0  0  0  0  0  0
    5.9223  -60.2202   11.0149 C   0  0  1  0  0  0  0  0  0  0  0  0
    7.0060  -60.8440   10.1398 C   0  0  0  0  0  0  0  0  0  0  0  0
    6.4203  -61.7865    9.1452 C   0  0  0  0  0  0  0  0  0  0  0  0
    5.5506  -61.1286    8.2299 N   0  0  0  0  0  4  0  0  0  0  0  0
    5.1802  -59.8201    8.6818 C   0  0  0  0  0  0  0  0  0  0  0  0
    4.7224  -59.8977   10.1211 C   0  0  0  0  0  0  0  0  0  0  0  0
  1  2  1  0
  2  3  1  0
  3  4  2  0
  3  8  1  0
  4  5  1  0
  5  6  2  0
  6  7  1  0
  6  9  1  0
  7  8  2  0
  9 10  1  0
  9 25  2  0
 10 11  1  0
 10 22  2  0
 11 12  2  0
 11 21  1  0
 12 13  1  0
 13 14  2  0
 14 15  1  0
 14 20  1  0
 15 16  2  0
 15 19  1  0
 16 17  1  0
 17 18  1  0
 18 19  2  0
 20 21  2  0
 22 23  1  0
 23 24  2  0
 23 26  1  0
 24 25  1  0
 26 27  1  0
 28 27  1  1
 28 29  1  0
 28 33  1  0
 29 30  1  0
 30 31  1  0
 31 32  1  0
 32 33  1  0
M  CHG  2   1   1  31   1
M  END
$$$$
