
     RDKit          3D

 33 37  0  0  0  0  0  0  0  0999 V2000
    1.7272  -61.5485    8.9225 N   0  0  0  0  0  4  0  0  0  0  0  0
    1.5178  -61.0279   10.2828 C   0  0  0  0  0  0  0  0  0  0  0  0
    2.8239  -61.0569   10.9897 C   0  0  0  0  0  0  0  0  0  0  0  0
    3.8514  -61.8115   10.4804 C   0  0  0  0  0  0  0  0  0  0  0  0
    5.0876  -61.8552   11.1245 C   0  0  0  0  0  0  0  0  0  0  0  0
    5.3190  -61.1496   12.2830 C   0  0  0  0  0  0  0  0  0  0  0  0
    4.2696  -60.4027   12.7688 C   0  0  0  0  0  0  0  0  0  0  0  0
    3.0393  -60.3459   12.1471 C   0  0  0  0  0  0  0  0  0  0  0  0
    6.6315  -61.2374   12.9022 C   0  0  0  0  0  0  0  0  0  0  0  0
    6.7672  -61.4076   14.2791 C   0  0  0  0  0  0  0  0  0  0  0  0
    5.5280  -61.4876   15.0374 C   0  0  0  0  0  0  0  0  0  0  0  0
    4.6536  -62.5377   14.9114 C   0  0  0  0  0  0  0  0  0  0  0  0
    3.4791  -62.5533   15.6680 C   0  0  0  0  0  0  0  0  0  0  0  0
    3.1793  -61.5305   16.5428 C   0  0  0  0  0  0  0  0  0  0  0  0
    1.9690  -61.4955   17.3562 C   0  0  0  0  0  0  0  0  0  0  0  0
    1.4223  -60.3738   17.9314 C   0  0  0  0  0  0  0  0  0  0  0  0
    0.3402  -60.6648   18.5989 O   0  0  0  0  0  0  0  0  0  0  0  0
    0.1440  -61.9423   18.4902 C   0  0  0  0  0  0  0  0  0  0  0  0
    1.1413  -62.5348   17.7135 C   0  0  0  0  0  0  0  0  0  0  0  0
    4.0815  -60.4942   16.6415 C   0  0  0  0  0  0  0  0  0  0  0  0
    5.2258  -60.4734   15.9081 C   0  0  0  0  0  0  0  0  0  0  0  0
    7.9767  -61.4889   14.8554 N   0  0  0  0  0  0  0  0  0  0  0  0
    9.1182  -61.4148   14.1701 C   0  0  0  0  0  0  0  0  0  0  0  0
    8.9744  -61.2432   12.7833 C   0  0  0  0  0  0  0  0  0  0  0  0
    7.7727  -61.1606   12.1955 N   0  0  0  0  0  0  0  0  0  0  0  0
   10.3918  -61.4891   14.6953 O   0  0  0  0  0  0  0  0  0  0  0  0
   11.1927  -62.5994   14.4864 C   0  0  0  0  0  0  0  0  0  0  0  0
   10.9944  -63.6101   15.5783 C   0  0  1  0  0  0  0  0  0  0  0  0
   11.5763  -64.9351   15.0936 C   0  0  0  0  0  0  0  0  0  0  0  0
   13.0659  -64.9159   15.1300 C   0  0  0  0  0  0  0  0  0  0  0  0
   13.5683  -64.7628   16.4534 N   0  0  0  0  0  4  0  0  0  0  0  0
   12.5561  -64.3248   17.3684 C   0  0  0  0  0  0  0  0  0  0  0  0
   11.8234  -63.1415   16.7765 C   0  0  0  0  0  0  0  0  0  0  0  0
  1  2  1  0
  2  3  1  0
  3  4  2  0
  3  8  1  0
  4  5  1  0
  5  6  2  0
  6  7  1  0
  6  9  1  0
  7  8  2  0
  9 10  1  0
  9 25  2  0
 10 11  1  0
 10 22  2  0
 11 12  2  0
 11 21  1  0
 12 13  1  0
 13 14  2  0
 14 15  1  0
 14 20  1  0
 15 16  2  0
 15 19  1  0
 16 17  1  0
 17 18  1  0
 18 19  2  0
 20 21  2  0
 22 23  1  0
 23 24  2  0
 23 26  1  0
 24 25  1  0
 26 27  1  0
 28 27  1  6
 28 29  1  0
 28 33  1  0
 29 30  1  0
 30 31  1  0
 31 32  1  0
 32 33  1  0
M  CHG  2   1   1  31   1
M  END
$$$$
