
     RDKit          3D

 24 27  0  0  0  0  0  0  0  0999 V2000
  -21.8907   18.9438  -13.6091 C   0  0  0  0  0  0  0  0  0  0  0  0
  -23.4523   19.8036  -11.6390 C   0  0  0  0  0  0  0  0  0  0  0  0
  -25.1761   19.4957   -8.8008 C   0  0  0  0  0  0  0  0  0  0  0  0
  -26.6775   17.4384   -7.6549 C   0  0  0  0  0  0  0  0  0  0  0  0
  -26.0813   18.4069   -6.8011 C   0  0  0  0  0  0  0  0  0  0  0  0
  -25.3302   19.4441   -7.3392 C   0  0  0  0  0  0  0  0  0  0  0  0
  -24.9289   20.8267  -12.8699 C   0  0  0  0  0  0  0  0  0  0  0  0
  -17.1518   15.9875  -13.1314 N   0  0  0  0  0  0  0  0  0  0  0  0
  -18.1917   16.7843  -12.6149 C   0  0  0  0  0  0  0  0  0  0  0  0
  -18.3264   17.1785  -11.2413 N   0  0  0  0  0  0  0  0  0  0  0  0
  -19.4292   17.8448  -11.0742 N   0  0  0  0  0  0  0  0  0  0  0  0
  -20.1428   17.9800  -12.2733 C   0  0  0  0  0  0  0  0  0  0  0  0
  -19.3273   17.3378  -13.1115 C   0  0  0  0  0  0  0  0  0  0  0  0
  -19.3896   17.6550  -14.6571 C   0  0  0  0  0  0  0  0  0  0  0  0
  -19.4192   17.8763  -15.7237 N   0  0  0  0  0  0  0  0  0  0  0  0
  -21.4335   18.6214  -12.3867 C   0  0  0  0  0  0  0  0  0  0  0  0
  -23.0007   19.6121  -13.9898 C   0  0  0  0  0  0  0  0  0  0  0  0
  -23.8062   20.0591  -12.9610 C   0  0  0  0  0  0  0  0  0  0  0  0
  -22.2784   19.0817  -11.3487 C   0  0  0  0  0  0  0  0  0  0  0  0
  -24.3434   20.4220  -10.8283 N   0  0  0  0  0  0  0  0  0  0  0  0
  -24.2600   20.5621   -9.3670 C   0  0  0  0  0  0  0  0  0  0  0  0
  -25.7782   18.5463   -9.4829 C   0  0  0  0  0  0  0  0  0  0  0  0
  -26.5227   17.5256   -8.9498 N   0  0  0  0  0  0  0  0  0  0  0  0
  -25.2926   21.0696  -11.5831 C   0  0  0  0  0  0  0  0  0  0  0  0
 16  1  2  0
 17  1  1  0
  2 18  1  0
  2 19  2  0
 20  2  1  0
  3  6  2  0
 21  3  1  0
  3 22  1  0
  5  4  2  0
  4 23  1  0
  6  5  1  0
 18  7  1  0
  7 24  2  0
  9  8  1  0
  9 10  1  0
 13  9  2  0
 11 10  1  0
 12 11  2  0
 12 13  1  0
 16 12  1  0
 13 14  1  0
 14 15  3  0
 19 16  1  0
 18 17  2  0
 21 20  1  6
 20 24  1  0
 22 23  2  0
M  END
$$$$
