
     RDKit          3D

 24 27  0  0  0  0  0  0  0  0999 V2000
  -22.4725   18.2913  -12.8219 C   0  0  0  0  0  0  0  0  0  0  0  0
  -23.2226   20.1404  -10.9197 C   0  0  0  0  0  0  0  0  0  0  0  0
  -23.1627   23.2197   -9.8134 C   0  0  0  0  0  0  0  0  0  0  0  0
  -23.1417   25.6547  -11.0030 C   0  0  0  0  0  0  0  0  0  0  0  0
  -22.8923   25.5612   -9.6653 C   0  0  0  0  0  0  0  0  0  0  0  0
  -22.9001   24.3281   -9.0486 C   0  0  0  0  0  0  0  0  0  0  0  0
  -25.4355   19.8100  -11.0928 C   0  0  0  0  0  0  0  0  0  0  0  0
  -17.1194   16.7809  -13.1590 N   0  0  0  0  0  0  0  0  0  0  0  0
  -18.1195   17.7611  -12.9297 C   0  0  0  0  0  0  0  0  0  0  0  0
  -17.9463   19.1146  -12.9506 N   0  0  0  0  0  0  0  0  0  0  0  0
  -19.1016   19.6927  -12.6925 N   0  0  0  0  0  0  0  0  0  0  0  0
  -20.0535   18.7950  -12.4967 C   0  0  0  0  0  0  0  0  0  0  0  0
  -19.4548   17.5669  -12.6419 C   0  0  0  0  0  0  0  0  0  0  0  0
  -20.0946   16.2873  -12.5186 C   0  0  0  0  0  0  0  0  0  0  0  0
  -20.6096   15.2371  -12.4358 N   0  0  0  0  0  0  0  0  0  0  0  0
  -21.4804   19.0030  -12.1841 C   0  0  0  0  0  0  0  0  0  0  0  0
  -23.8053   18.4983  -12.5172 C   0  0  0  0  0  0  0  0  0  0  0  0
  -24.2009   19.4178  -11.5698 C   0  0  0  0  0  0  0  0  0  0  0  0
  -21.8800   19.9221  -11.2367 C   0  0  0  0  0  0  0  0  0  0  0  0
  -23.8613   20.9516  -10.0669 N   0  0  0  0  0  0  0  0  0  0  0  0
  -23.1797   21.8847   -9.1657 C   0  0  0  0  0  0  0  0  0  0  0  0
  -23.4119   23.3485  -11.1691 C   0  0  0  0  0  0  0  0  0  0  0  0
  -23.3972   24.5587  -11.7383 N   0  0  0  0  0  0  0  0  0  0  0  0
  -25.2097   20.7795  -10.1439 C   0  0  0  0  0  0  0  0  0  0  0  0
 16  1  2  0
 17  1  1  0
  2 18  1  0
  2 19  2  0
 20  2  1  0
  3  6  2  0
 21  3  1  0
  3 22  1  0
  5  4  2  0
  4 23  1  0
  6  5  1  0
 18  7  1  0
  7 24  2  0
  9  8  1  0
  9 10  1  0
 13  9  2  0
 11 10  1  0
 12 11  2  0
 12 13  1  0
 16 12  1  0
 13 14  1  0
 14 15  3  0
 19 16  1  0
 18 17  2  0
 20 21  1  0
 20 24  1  0
 22 23  2  0
M  END
$$$$
