
     RDKit          3D

 24 27  0  0  0  0  0  0  0  0999 V2000
  -22.4792   18.3092  -12.6427 C   0  0  0  0  0  0  0  0  0  0  0  0
  -23.1632   20.5219  -11.3408 C   0  0  0  0  0  0  0  0  0  0  0  0
  -22.8836   22.6951   -8.8736 C   0  0  0  0  0  0  0  0  0  0  0  0
  -22.2471   22.4308   -6.1672 C   0  0  0  0  0  0  0  0  0  0  0  0
  -22.0243   23.6834   -6.8028 C   0  0  0  0  0  0  0  0  0  0  0  0
  -22.3322   23.8487   -8.1471 C   0  0  0  0  0  0  0  0  0  0  0  0
  -25.3229   20.2738  -11.4696 C   0  0  0  0  0  0  0  0  0  0  0  0
  -17.1577   16.5382  -13.4001 N   0  0  0  0  0  0  0  0  0  0  0  0
  -18.1619   17.5075  -13.2128 C   0  0  0  0  0  0  0  0  0  0  0  0
  -17.9675   18.9268  -13.3026 N   0  0  0  0  0  0  0  0  0  0  0  0
  -19.0686   19.5480  -13.0034 N   0  0  0  0  0  0  0  0  0  0  0  0
  -20.1028   18.6542  -12.6922 C   0  0  0  0  0  0  0  0  0  0  0  0
  -19.4720   17.4903  -12.8579 C   0  0  0  0  0  0  0  0  0  0  0  0
  -20.3089   16.1844  -13.1539 C   0  0  0  0  0  0  0  0  0  0  0  0
  -20.8774   15.2796  -13.3676 N   0  0  0  0  0  0  0  0  0  0  0  0
  -21.4251   19.0533  -12.2651 C   0  0  0  0  0  0  0  0  0  0  0  0
  -23.8040   18.4965  -12.4605 C   0  0  0  0  0  0  0  0  0  0  0  0
  -24.1530   19.6499  -11.7861 C   0  0  0  0  0  0  0  0  0  0  0  0
  -21.8054   20.2253  -11.5687 C   0  0  0  0  0  0  0  0  0  0  0  0
  -23.7607   21.6111  -10.8018 N   0  0  0  0  0  0  0  0  0  0  0  0
  -23.1059   22.8529  -10.3646 C   0  0  0  0  0  0  0  0  0  0  0  0
  -23.0476   21.5927   -8.1759 C   0  0  0  0  0  0  0  0  0  0  0  0
  -22.7468   21.4330   -6.8475 N   0  0  0  0  0  0  0  0  0  0  0  0
  -25.1273   21.4746  -10.8639 C   0  0  0  0  0  0  0  0  0  0  0  0
 16  1  2  0
 17  1  1  0
  2 18  1  0
  2 19  2  0
 20  2  1  0
  3  6  2  0
 21  3  1  0
  3 22  1  0
  5  4  2  0
  4 23  1  0
  6  5  1  0
 18  7  1  0
  7 24  2  0
  9  8  1  0
  9 10  1  0
 13  9  2  0
 11 10  1  0
 12 11  2  0
 12 13  1  0
 16 12  1  0
 13 14  1  0
 14 15  3  0
 19 16  1  0
 18 17  2  0
 21 20  1  6
 20 24  1  0
 22 23  2  0
M  END
$$$$
