
     RDKit          3D

 24 27  0  0  0  0  0  0  0  0999 V2000
  -21.1128   20.2554  -11.9767 C   0  0  0  0  0  0  0  0  0  0  0  0
  -23.7454   19.5873  -11.5043 C   0  0  0  0  0  0  0  0  0  0  0  0
  -26.4851   18.1172   -9.9479 C   0  0  0  0  0  0  0  0  0  0  0  0
  -27.6235   17.7157   -7.5214 C   0  0  0  0  0  0  0  0  0  0  0  0
  -26.3994   17.1743   -7.7843 C   0  0  0  0  0  0  0  0  0  0  0  0
  -25.8099   17.3715   -9.0149 C   0  0  0  0  0  0  0  0  0  0  0  0
  -24.4356   21.6418  -10.9221 C   0  0  0  0  0  0  0  0  0  0  0  0
  -17.2154   16.6323  -13.2947 N   0  0  0  0  0  0  0  0  0  0  0  0
  -18.5910   16.9127  -13.0882 C   0  0  0  0  0  0  0  0  0  0  0  0
  -19.6324   16.0566  -13.3005 N   0  0  0  0  0  0  0  0  0  0  0  0
  -20.7559   16.6743  -12.9978 N   0  0  0  0  0  0  0  0  0  0  0  0
  -20.5275   17.9117  -12.5892 C   0  0  0  0  0  0  0  0  0  0  0  0
  -19.1652   18.0838  -12.6385 C   0  0  0  0  0  0  0  0  0  0  0  0
  -18.4436   19.2740  -12.2854 C   0  0  0  0  0  0  0  0  0  0  0  0
  -17.8434   20.2353  -11.9841 N   0  0  0  0  0  0  0  0  0  0  0  0
  -21.4901   18.9429  -12.1567 C   0  0  0  0  0  0  0  0  0  0  0  0
  -22.0275   21.2097  -11.5709 C   0  0  0  0  0  0  0  0  0  0  0  0
  -23.3477   20.8962  -11.3295 C   0  0  0  0  0  0  0  0  0  0  0  0
  -22.8118   18.6328  -11.9142 C   0  0  0  0  0  0  0  0  0  0  0  0
  -25.0506   19.5501  -11.2069 N   0  0  0  0  0  0  0  0  0  0  0  0
  -25.8679   18.3360  -11.2795 C   0  0  0  0  0  0  0  0  0  0  0  0
  -27.7263   18.6531   -9.6498 C   0  0  0  0  0  0  0  0  0  0  0  0
  -28.2719   18.4440   -8.4467 N   0  0  0  0  0  0  0  0  0  0  0  0
  -25.5063   20.7818  -10.8477 C   0  0  0  0  0  0  0  0  0  0  0  0
 16  1  2  0
 17  1  1  0
  2 18  1  0
  2 19  2  0
 20  2  1  0
  3  6  2  0
 21  3  1  0
  3 22  1  0
  5  4  2  0
  4 23  1  0
  6  5  1  0
 18  7  1  0
  7 24  2  0
  9  8  1  0
  9 10  1  0
 13  9  2  0
 11 10  1  0
 12 11  2  0
 12 13  1  0
 16 12  1  0
 13 14  1  0
 14 15  3  0
 19 16  1  0
 18 17  2  0
 20 21  1  0
 20 24  1  0
 22 23  2  0
M  END
$$$$
