
     RDKit          3D

 24 27  0  0  0  0  0  0  0  0999 V2000
  -22.7328   18.0737  -12.5391 C   0  0  0  0  0  0  0  0  0  0  0  0
  -23.3466   20.5449  -11.4824 C   0  0  0  0  0  0  0  0  0  0  0  0
  -22.9086   22.8679   -9.1793 C   0  0  0  0  0  0  0  0  0  0  0  0
  -22.4061   22.8802   -6.5162 C   0  0  0  0  0  0  0  0  0  0  0  0
  -22.1513   21.7526   -7.2402 C   0  0  0  0  0  0  0  0  0  0  0  0
  -22.4026   21.7340   -8.5956 C   0  0  0  0  0  0  0  0  0  0  0  0
  -25.5337   20.1562  -11.1630 C   0  0  0  0  0  0  0  0  0  0  0  0
  -17.4999   16.4948  -13.3513 N   0  0  0  0  0  0  0  0  0  0  0  0
  -18.4642   17.5289  -13.2316 C   0  0  0  0  0  0  0  0  0  0  0  0
  -18.2889   18.8414  -13.5617 N   0  0  0  0  0  0  0  0  0  0  0  0
  -19.4059   19.4933  -13.3109 N   0  0  0  0  0  0  0  0  0  0  0  0
  -20.3338   18.6849  -12.8252 C   0  0  0  0  0  0  0  0  0  0  0  0
  -19.7600   17.4379  -12.7666 C   0  0  0  0  0  0  0  0  0  0  0  0
  -20.3874   16.2324  -12.3029 C   0  0  0  0  0  0  0  0  0  0  0  0
  -20.8827   15.2379  -11.9278 N   0  0  0  0  0  0  0  0  0  0  0  0
  -21.7161   18.9945  -12.4127 C   0  0  0  0  0  0  0  0  0  0  0  0
  -24.0232   18.3798  -12.1477 C   0  0  0  0  0  0  0  0  0  0  0  0
  -24.3506   19.6091  -11.6174 C   0  0  0  0  0  0  0  0  0  0  0  0
  -22.0474   20.2235  -11.8817 C   0  0  0  0  0  0  0  0  0  0  0  0
  -23.9194   21.6345  -10.9550 N   0  0  0  0  0  0  0  0  0  0  0  0
  -23.1895   22.8645  -10.6364 C   0  0  0  0  0  0  0  0  0  0  0  0
  -23.1562   23.9963   -8.4165 C   0  0  0  0  0  0  0  0  0  0  0  0
  -22.9018   23.9831   -7.1034 N   0  0  0  0  0  0  0  0  0  0  0  0
  -25.2502   21.4361  -10.7469 C   0  0  0  0  0  0  0  0  0  0  0  0
 16  1  2  0
 17  1  1  0
  2 18  1  0
  2 19  2  0
 20  2  1  0
  3  6  2  0
 21  3  1  0
  3 22  1  0
  5  4  2  0
  4 23  1  0
  6  5  1  0
 18  7  1  0
  7 24  2  0
  9  8  1  0
  9 10  1  0
 13  9  2  0
 11 10  1  0
 12 11  2  0
 12 13  1  0
 16 12  1  0
 13 14  1  0
 14 15  3  0
 19 16  1  0
 18 17  2  0
 20 21  1  0
 20 24  1  0
 22 23  2  0
M  END
$$$$
