
     RDKit          3D

 24 27  0  0  0  0  0  0  0  0999 V2000
  -21.2089   16.9805  -13.1243 C   0  0  0  0  0  0  0  0  0  0  0  0
  -22.3417   19.0721  -11.9406 C   0  0  0  0  0  0  0  0  0  0  0  0
  -23.9294   21.9541  -10.2737 C   0  0  0  0  0  0  0  0  0  0  0  0
  -26.0293   23.0581   -8.8002 C   0  0  0  0  0  0  0  0  0  0  0  0
  -24.9583   23.9028   -9.2027 C   0  0  0  0  0  0  0  0  0  0  0  0
  -23.8997   23.3857   -9.9384 C   0  0  0  0  0  0  0  0  0  0  0  0
  -24.4133   18.5590  -12.3740 C   0  0  0  0  0  0  0  0  0  0  0  0
  -15.7732   16.5785  -14.4863 N   0  0  0  0  0  0  0  0  0  0  0  0
  -16.8413   17.0466  -13.6970 C   0  0  0  0  0  0  0  0  0  0  0  0
  -16.7439   17.4265  -12.3162 N   0  0  0  0  0  0  0  0  0  0  0  0
  -17.9176   17.7402  -11.8558 N   0  0  0  0  0  0  0  0  0  0  0  0
  -18.9115   17.6193  -12.8370 C   0  0  0  0  0  0  0  0  0  0  0  0
  -18.1754   17.2218  -13.8763 C   0  0  0  0  0  0  0  0  0  0  0  0
  -18.7071   17.4569  -15.3445 C   0  0  0  0  0  0  0  0  0  0  0  0
  -19.0773   17.6319  -16.3543 N   0  0  0  0  0  0  0  0  0  0  0  0
  -20.3203   17.8445  -12.6034 C   0  0  0  0  0  0  0  0  0  0  0  0
  -22.5591   16.9989  -13.1327 C   0  0  0  0  0  0  0  0  0  0  0  0
  -23.1415   18.0902  -12.5189 C   0  0  0  0  0  0  0  0  0  0  0  0
  -20.9390   18.9500  -11.9723 C   0  0  0  0  0  0  0  0  0  0  0  0
  -23.1410   20.0707  -11.4959 N   0  0  0  0  0  0  0  0  0  0  0  0
  -22.7152   21.3780  -10.9745 C   0  0  0  0  0  0  0  0  0  0  0  0
  -24.9747   21.2788   -9.8491 C   0  0  0  0  0  0  0  0  0  0  0  0
  -26.0208   21.7925   -9.1263 N   0  0  0  0  0  0  0  0  0  0  0  0
  -24.4572   19.7661  -11.7509 C   0  0  0  0  0  0  0  0  0  0  0  0
 16  1  2  0
 17  1  1  0
  2 18  1  0
  2 19  2  0
 20  2  1  0
  3  6  2  0
 21  3  1  0
  3 22  1  0
  5  4  2  0
  4 23  1  0
  6  5  1  0
 18  7  1  0
  7 24  2  0
  9  8  1  0
  9 10  1  0
 13  9  2  0
 11 10  1  0
 12 11  2  0
 12 13  1  0
 16 12  1  0
 13 14  1  0
 14 15  3  0
 19 16  1  0
 18 17  2  0
 21 20  1  6
 20 24  1  0
 22 23  2  0
M  END
$$$$
