
     RDKit          3D

 24 27  0  0  0  0  0  0  0  0999 V2000
  -13.8319   10.3829  -26.5431 C   0  0  0  0  0  0  0  0  0  0  0  0
  -12.2293    8.8294  -28.1613 C   0  0  0  0  0  0  0  0  0  0  0  0
  -10.6305    6.1014  -28.4074 C   0  0  0  0  0  0  0  0  0  0  0  0
  -11.0850    3.6801  -27.2779 C   0  0  0  0  0  0  0  0  0  0  0  0
  -12.0276    4.2220  -28.1017 C   0  0  0  0  0  0  0  0  0  0  0  0
  -11.8080    5.4530  -28.6823 C   0  0  0  0  0  0  0  0  0  0  0  0
  -13.5403    8.9093  -29.9809 C   0  0  0  0  0  0  0  0  0  0  0  0
  -12.8029   10.4277  -21.0537 N   0  0  0  0  0  0  0  0  0  0  0  0
  -12.3617   10.4065  -22.4021 C   0  0  0  0  0  0  0  0  0  0  0  0
  -11.1169   10.7390  -22.8519 N   0  0  0  0  0  0  0  0  0  0  0  0
  -11.0878   10.5949  -24.1610 N   0  0  0  0  0  0  0  0  0  0  0  0
  -12.2557   10.1796  -24.6234 C   0  0  0  0  0  0  0  0  0  0  0  0
  -13.0761   10.0538  -23.5285 C   0  0  0  0  0  0  0  0  0  0  0  0
  -14.4477    9.6287  -23.5361 C   0  0  0  0  0  0  0  0  0  0  0  0
  -15.5616    9.2626  -23.5454 N   0  0  0  0  0  0  0  0  0  0  0  0
  -12.6588    9.8923  -26.0134 C   0  0  0  0  0  0  0  0  0  0  0  0
  -14.1951   10.1043  -27.8479 C   0  0  0  0  0  0  0  0  0  0  0  0
  -13.4082    9.3299  -28.6728 C   0  0  0  0  0  0  0  0  0  0  0  0
  -11.8739    9.1178  -26.8417 C   0  0  0  0  0  0  0  0  0  0  0  0
  -11.6645    8.1211  -29.1475 N   0  0  0  0  0  0  0  0  0  0  0  0
  -10.3790    7.4293  -29.0200 C   0  0  0  0  0  0  0  0  0  0  0  0
   -9.6939    5.5242  -27.5670 C   0  0  0  0  0  0  0  0  0  0  0  0
   -9.9363    4.3285  -27.0189 N   0  0  0  0  0  0  0  0  0  0  0  0
  -12.4335    8.1461  -30.2709 C   0  0  0  0  0  0  0  0  0  0  0  0
 16  1  2  0
 17  1  1  0
  2 18  1  0
  2 19  2  0
 20  2  1  0
  3  6  2  0
 21  3  1  0
  3 22  1  0
  5  4  2  0
  4 23  1  0
  6  5  1  0
 18  7  1  0
  7 24  2  0
  9  8  1  0
  9 10  1  0
 13  9  2  0
 11 10  1  0
 12 11  2  0
 12 13  1  0
 16 12  1  0
 13 14  1  0
 14 15  3  0
 19 16  1  0
 18 17  2  0
 20 21  1  0
 20 24  1  0
 22 23  2  0
M  END
$$$$
