
     RDKit          3D

 24 27  0  0  0  0  0  0  0  0999 V2000
  -21.6569   17.3467  -12.3265 C   0  0  0  0  0  0  0  0  0  0  0  0
  -22.7245   19.6348  -11.4995 C   0  0  0  0  0  0  0  0  0  0  0  0
  -23.1097   22.4166   -9.5855 C   0  0  0  0  0  0  0  0  0  0  0  0
  -23.2539   22.8088   -6.8241 C   0  0  0  0  0  0  0  0  0  0  0  0
  -22.5012   21.7087   -7.3200 C   0  0  0  0  0  0  0  0  0  0  0  0
  -22.4075   21.4869   -8.6880 C   0  0  0  0  0  0  0  0  0  0  0  0
  -24.7972   18.9714  -11.4200 C   0  0  0  0  0  0  0  0  0  0  0  0
  -16.3999   16.3834  -13.9303 N   0  0  0  0  0  0  0  0  0  0  0  0
  -17.4124   17.2121  -13.4097 C   0  0  0  0  0  0  0  0  0  0  0  0
  -17.1971   18.4851  -12.7824 N   0  0  0  0  0  0  0  0  0  0  0  0
  -18.3228   18.9622  -12.3429 N   0  0  0  0  0  0  0  0  0  0  0  0
  -19.3953   18.1016  -12.6158 C   0  0  0  0  0  0  0  0  0  0  0  0
  -18.7573   17.1176  -13.2521 C   0  0  0  0  0  0  0  0  0  0  0  0
  -19.5593   16.1722  -14.2301 C   0  0  0  0  0  0  0  0  0  0  0  0
  -20.1012   15.5170  -14.9117 N   0  0  0  0  0  0  0  0  0  0  0  0
  -20.7584   18.3382  -12.1962 C   0  0  0  0  0  0  0  0  0  0  0  0
  -22.9876   17.3242  -12.0983 C   0  0  0  0  0  0  0  0  0  0  0  0
  -23.5368   18.5173  -11.6719 C   0  0  0  0  0  0  0  0  0  0  0  0
  -21.3413   19.5484  -11.7503 C   0  0  0  0  0  0  0  0  0  0  0  0
  -23.5084   20.6898  -11.1734 N   0  0  0  0  0  0  0  0  0  0  0  0
  -23.0967   22.0974  -11.0671 C   0  0  0  0  0  0  0  0  0  0  0  0
  -23.7685   23.3969   -9.0075 C   0  0  0  0  0  0  0  0  0  0  0  0
  -23.8561   23.6163   -7.6567 N   0  0  0  0  0  0  0  0  0  0  0  0
  -24.8234   20.2941  -11.1088 C   0  0  0  0  0  0  0  0  0  0  0  0
 16  1  2  0
 17  1  1  0
  2 18  1  0
  2 19  2  0
 20  2  1  0
  3  6  2  0
 21  3  1  0
  3 22  1  0
  5  4  2  0
  4 23  1  0
  6  5  1  0
 18  7  1  0
  7 24  2  0
  9  8  1  0
  9 10  1  0
 13  9  2  0
 11 10  1  0
 12 11  2  0
 12 13  1  0
 16 12  1  0
 13 14  1  0
 14 15  3  0
 19 16  1  0
 18 17  2  0
 21 20  1  6
 20 24  1  0
 22 23  2  0
M  END
$$$$
