
     RDKit          3D

 24 27  0  0  0  0  0  0  0  0999 V2000
  -12.7862   10.8169  -26.5471 C   0  0  0  0  0  0  0  0  0  0  0  0
  -12.7413    8.5660  -28.1382 C   0  0  0  0  0  0  0  0  0  0  0  0
  -11.4722    5.6600  -28.6539 C   0  0  0  0  0  0  0  0  0  0  0  0
   -9.0122    4.6425  -28.1461 C   0  0  0  0  0  0  0  0  0  0  0  0
  -10.1183    3.9395  -27.7683 C   0  0  0  0  0  0  0  0  0  0  0  0
  -11.3752    4.4465  -28.0211 C   0  0  0  0  0  0  0  0  0  0  0  0
  -12.3530    9.6253  -30.0781 C   0  0  0  0  0  0  0  0  0  0  0  0
  -12.8923   10.5076  -21.0397 N   0  0  0  0  0  0  0  0  0  0  0  0
  -13.1545    9.9181  -22.3035 C   0  0  0  0  0  0  0  0  0  0  0  0
  -13.8871    8.7901  -22.5343 N   0  0  0  0  0  0  0  0  0  0  0  0
  -13.9069    8.5567  -23.8307 N   0  0  0  0  0  0  0  0  0  0  0  0
  -13.2214    9.4740  -24.4933 C   0  0  0  0  0  0  0  0  0  0  0  0
  -12.7369   10.3447  -23.5474 C   0  0  0  0  0  0  0  0  0  0  0  0
  -11.9307   11.5073  -23.7932 C   0  0  0  0  0  0  0  0  0  0  0  0
  -11.2706   12.4512  -24.0132 N   0  0  0  0  0  0  0  0  0  0  0  0
  -12.9874    9.5944  -25.9451 C   0  0  0  0  0  0  0  0  0  0  0  0
  -12.5683   10.9124  -27.9092 C   0  0  0  0  0  0  0  0  0  0  0  0
  -12.5422    9.7995  -28.7219 C   0  0  0  0  0  0  0  0  0  0  0  0
  -12.9607    8.4830  -26.7613 C   0  0  0  0  0  0  0  0  0  0  0  0
  -12.6719    7.6678  -29.1290 N   0  0  0  0  0  0  0  0  0  0  0  0
  -12.8170    6.2233  -28.9301 C   0  0  0  0  0  0  0  0  0  0  0  0
  -10.3299    6.3486  -29.0247 C   0  0  0  0  0  0  0  0  0  0  0  0
   -9.1245    5.8302  -28.7655 N   0  0  0  0  0  0  0  0  0  0  0  0
  -12.4370    8.2749  -30.3248 C   0  0  0  0  0  0  0  0  0  0  0  0
 16  1  2  0
 17  1  1  0
  2 18  1  0
  2 19  2  0
 20  2  1  0
  3  6  2  0
 21  3  1  0
  3 22  1  0
  5  4  2  0
  4 23  1  0
  6  5  1  0
 18  7  1  0
  7 24  2  0
  9  8  1  0
  9 10  1  0
 13  9  2  0
 11 10  1  0
 12 11  2  0
 12 13  1  0
 16 12  1  0
 13 14  1  0
 14 15  3  0
 19 16  1  0
 18 17  2  0
 20 21  1  0
 20 24  1  0
 22 23  2  0
M  END
$$$$
