
     RDKit          3D

 24 27  0  0  0  0  0  0  0  0999 V2000
  -22.6191   17.9943  -12.3188 C   0  0  0  0  0  0  0  0  0  0  0  0
  -23.3006   20.5043  -11.4047 C   0  0  0  0  0  0  0  0  0  0  0  0
  -22.7067   22.8815   -9.3106 C   0  0  0  0  0  0  0  0  0  0  0  0
  -21.7851   22.8794   -6.7620 C   0  0  0  0  0  0  0  0  0  0  0  0
  -21.4451   23.9040   -7.5958 C   0  0  0  0  0  0  0  0  0  0  0  0
  -21.9078   23.9164   -8.8944 C   0  0  0  0  0  0  0  0  0  0  0  0
  -25.4669   20.0625  -11.0198 C   0  0  0  0  0  0  0  0  0  0  0  0
  -17.3639   16.5345  -13.1752 N   0  0  0  0  0  0  0  0  0  0  0  0
  -18.3537   17.5467  -13.0788 C   0  0  0  0  0  0  0  0  0  0  0  0
  -18.2170   18.8511  -13.4560 N   0  0  0  0  0  0  0  0  0  0  0  0
  -19.3477   19.4821  -13.2134 N   0  0  0  0  0  0  0  0  0  0  0  0
  -20.2481   18.6673  -12.6884 C   0  0  0  0  0  0  0  0  0  0  0  0
  -19.6410   17.4383  -12.5944 C   0  0  0  0  0  0  0  0  0  0  0  0
  -20.2308   16.2338  -12.0815 C   0  0  0  0  0  0  0  0  0  0  0  0
  -20.7303   15.2595  -11.6615 N   0  0  0  0  0  0  0  0  0  0  0  0
  -21.6332   18.9550  -12.2691 C   0  0  0  0  0  0  0  0  0  0  0  0
  -23.9124   18.2804  -11.9222 C   0  0  0  0  0  0  0  0  0  0  0  0
  -24.2734   19.5285  -11.4624 C   0  0  0  0  0  0  0  0  0  0  0  0
  -21.9980   20.2027  -11.8086 C   0  0  0  0  0  0  0  0  0  0  0  0
  -23.9019   21.6046  -10.9345 N   0  0  0  0  0  0  0  0  0  0  0  0
  -23.2101   22.8761  -10.7065 C   0  0  0  0  0  0  0  0  0  0  0  0
  -23.0336   21.8564   -8.4396 C   0  0  0  0  0  0  0  0  0  0  0  0
  -22.5691   21.8728   -7.1854 N   0  0  0  0  0  0  0  0  0  0  0  0
  -25.2212   21.3746  -10.6889 C   0  0  0  0  0  0  0  0  0  0  0  0
 16  1  2  0
 17  1  1  0
  2 18  1  0
  2 19  2  0
 20  2  1  0
  3  6  2  0
 21  3  1  0
  3 22  1  0
  5  4  2  0
  4 23  1  0
  6  5  1  0
 18  7  1  0
  7 24  2  0
  9  8  1  0
  9 10  1  0
 13  9  2  0
 11 10  1  0
 12 11  2  0
 12 13  1  0
 16 12  1  0
 13 14  1  0
 14 15  3  0
 19 16  1  0
 18 17  2  0
 20 21  1  0
 20 24  1  0
 22 23  2  0
M  END
$$$$
