
     RDKit          3D

 24 27  0  0  0  0  0  0  0  0999 V2000
  -22.1588   18.9783  -12.7595 C   0  0  0  0  0  0  0  0  0  0  0  0
  -23.1060   20.5101  -10.6722 C   0  0  0  0  0  0  0  0  0  0  0  0
  -22.9143   23.2943   -9.1102 C   0  0  0  0  0  0  0  0  0  0  0  0
  -22.3115   25.7969   -9.9580 C   0  0  0  0  0  0  0  0  0  0  0  0
  -21.7908   25.3454   -8.7809 C   0  0  0  0  0  0  0  0  0  0  0  0
  -22.0900   24.0742   -8.3390 C   0  0  0  0  0  0  0  0  0  0  0  0
  -25.2842   20.3234  -11.1791 C   0  0  0  0  0  0  0  0  0  0  0  0
  -16.8520   17.2906  -12.6993 N   0  0  0  0  0  0  0  0  0  0  0  0
  -17.8465   18.2629  -12.4180 C   0  0  0  0  0  0  0  0  0  0  0  0
  -17.6348   19.5861  -12.1598 N   0  0  0  0  0  0  0  0  0  0  0  0
  -18.7980   20.1666  -11.9466 N   0  0  0  0  0  0  0  0  0  0  0  0
  -19.7921   19.2995  -12.0477 C   0  0  0  0  0  0  0  0  0  0  0  0
  -19.2133   18.0894  -12.3453 C   0  0  0  0  0  0  0  0  0  0  0  0
  -19.8990   16.8444  -12.5495 C   0  0  0  0  0  0  0  0  0  0  0  0
  -20.4764   15.8367  -12.7118 N   0  0  0  0  0  0  0  0  0  0  0  0
  -21.2418   19.5210  -11.8863 C   0  0  0  0  0  0  0  0  0  0  0  0
  -23.5143   19.1956  -12.5941 C   0  0  0  0  0  0  0  0  0  0  0  0
  -24.0080   19.9581  -11.5576 C   0  0  0  0  0  0  0  0  0  0  0  0
  -21.7394   20.2834  -10.8504 C   0  0  0  0  0  0  0  0  0  0  0  0
  -23.8308   21.1942   -9.7778 N   0  0  0  0  0  0  0  0  0  0  0  0
  -23.2508   21.9250   -8.6478 C   0  0  0  0  0  0  0  0  0  0  0  0
  -23.4265   23.7821  -10.3002 C   0  0  0  0  0  0  0  0  0  0  0  0
  -23.1176   25.0199  -10.7021 N   0  0  0  0  0  0  0  0  0  0  0  0
  -25.1611   21.1042  -10.0537 C   0  0  0  0  0  0  0  0  0  0  0  0
 16  1  2  0
 17  1  1  0
  2 18  1  0
  2 19  2  0
 20  2  1  0
  3  6  2  0
 21  3  1  0
  3 22  1  0
  5  4  2  0
  4 23  1  0
  6  5  1  0
 18  7  1  0
  7 24  2  0
  9  8  1  0
  9 10  1  0
 13  9  2  0
 11 10  1  0
 12 11  2  0
 12 13  1  0
 16 12  1  0
 13 14  1  0
 14 15  3  0
 19 16  1  0
 18 17  2  0
 20 21  1  0
 20 24  1  0
 22 23  2  0
M  END
$$$$
