
     RDKit          3D

 24 27  0  0  0  0  0  0  0  0999 V2000
  -14.1863   11.1361  -24.8028 C   0  0  0  0  0  0  0  0  0  0  0  0
  -13.4034    9.8888  -27.0142 C   0  0  0  0  0  0  0  0  0  0  0  0
  -11.3484    8.8724  -29.5607 C   0  0  0  0  0  0  0  0  0  0  0  0
   -9.3928    9.9669  -31.2272 C   0  0  0  0  0  0  0  0  0  0  0  0
   -9.5043    8.5517  -31.1418 C   0  0  0  0  0  0  0  0  0  0  0  0
  -10.4678    7.9753  -30.3240 C   0  0  0  0  0  0  0  0  0  0  0  0
  -15.0322   10.5424  -28.3035 C   0  0  0  0  0  0  0  0  0  0  0  0
  -12.3018    9.8490  -19.6424 N   0  0  0  0  0  0  0  0  0  0  0  0
  -12.1667   10.0178  -21.0339 C   0  0  0  0  0  0  0  0  0  0  0  0
  -10.9607   10.4120  -21.7051 N   0  0  0  0  0  0  0  0  0  0  0  0
  -11.1833   10.5518  -22.9775 N   0  0  0  0  0  0  0  0  0  0  0  0
  -12.5173   10.2735  -23.3065 C   0  0  0  0  0  0  0  0  0  0  0  0
  -13.0007    9.9595  -22.1033 C   0  0  0  0  0  0  0  0  0  0  0  0
  -14.2957    9.0628  -21.9924 C   0  0  0  0  0  0  0  0  0  0  0  0
  -15.1832    8.4343  -21.9233 N   0  0  0  0  0  0  0  0  0  0  0  0
  -13.0736   10.4006  -24.6349 C   0  0  0  0  0  0  0  0  0  0  0  0
  -14.9493   11.3476  -25.8967 C   0  0  0  0  0  0  0  0  0  0  0  0
  -14.5389   10.6939  -27.0418 C   0  0  0  0  0  0  0  0  0  0  0  0
  -12.6666    9.7469  -25.8224 C   0  0  0  0  0  0  0  0  0  0  0  0
  -13.2707    9.2913  -28.2222 N   0  0  0  0  0  0  0  0  0  0  0  0
  -12.3162    8.2333  -28.5849 C   0  0  0  0  0  0  0  0  0  0  0  0
  -11.1503   10.1616  -29.7268 C   0  0  0  0  0  0  0  0  0  0  0  0
  -10.2011   10.7285  -30.5381 N   0  0  0  0  0  0  0  0  0  0  0  0
  -14.2846    9.6950  -29.0584 C   0  0  0  0  0  0  0  0  0  0  0  0
 16  1  2  0
 17  1  1  0
  2 18  1  0
  2 19  2  0
 20  2  1  0
  3  6  2  0
 21  3  1  0
  3 22  1  0
  5  4  2  0
  4 23  1  0
  6  5  1  0
 18  7  1  0
  7 24  2  0
  9  8  1  0
  9 10  1  0
 13  9  2  0
 11 10  1  0
 12 11  2  0
 12 13  1  0
 16 12  1  0
 13 14  1  0
 14 15  3  0
 19 16  1  0
 18 17  2  0
 21 20  1  6
 20 24  1  0
 22 23  2  0
M  END
$$$$
