
     RDKit          3D

 24 27  0  0  0  0  0  0  0  0999 V2000
  -21.5678   17.9223  -13.8939 C   0  0  0  0  0  0  0  0  0  0  0  0
  -23.1354   19.2498  -12.0553 C   0  0  0  0  0  0  0  0  0  0  0  0
  -25.0338   19.4596   -9.2590 C   0  0  0  0  0  0  0  0  0  0  0  0
  -26.9239   18.0165   -7.9590 C   0  0  0  0  0  0  0  0  0  0  0  0
  -26.9362   18.0616   -9.3223 C   0  0  0  0  0  0  0  0  0  0  0  0
  -25.9800   18.7921   -9.9950 C   0  0  0  0  0  0  0  0  0  0  0  0
  -24.8023   19.7738  -13.4636 C   0  0  0  0  0  0  0  0  0  0  0  0
  -16.2539   16.8583  -12.4963 N   0  0  0  0  0  0  0  0  0  0  0  0
  -17.6348   16.9394  -12.1803 C   0  0  0  0  0  0  0  0  0  0  0  0
  -18.2636   16.3265  -11.1356 N   0  0  0  0  0  0  0  0  0  0  0  0
  -19.5431   16.6381  -11.1705 N   0  0  0  0  0  0  0  0  0  0  0  0
  -19.8146   17.4350  -12.1911 C   0  0  0  0  0  0  0  0  0  0  0  0
  -18.6225   17.6386  -12.8432 C   0  0  0  0  0  0  0  0  0  0  0  0
  -18.4197   18.4401  -14.0172 C   0  0  0  0  0  0  0  0  0  0  0  0
  -18.2646   19.1095  -14.9675 N   0  0  0  0  0  0  0  0  0  0  0  0
  -21.1066   18.0187  -12.5995 C   0  0  0  0  0  0  0  0  0  0  0  0
  -22.7811   18.4751  -14.2604 C   0  0  0  0  0  0  0  0  0  0  0  0
  -23.5794   19.1425  -13.3567 C   0  0  0  0  0  0  0  0  0  0  0  0
  -21.9080   18.6873  -11.6979 C   0  0  0  0  0  0  0  0  0  0  0  0
  -24.0778   19.9337  -11.3939 N   0  0  0  0  0  0  0  0  0  0  0  0
  -23.9996   20.2547   -9.9662 C   0  0  0  0  0  0  0  0  0  0  0  0
  -25.0488   19.3936   -7.8763 C   0  0  0  0  0  0  0  0  0  0  0  0
  -25.9896   18.6762   -7.2526 N   0  0  0  0  0  0  0  0  0  0  0  0
  -25.1079   20.2703  -12.2180 C   0  0  0  0  0  0  0  0  0  0  0  0
 16  1  2  0
 17  1  1  0
  2 18  1  0
  2 19  2  0
 20  2  1  0
  3  6  2  0
 21  3  1  0
  3 22  1  0
  5  4  2  0
  4 23  1  0
  6  5  1  0
 18  7  1  0
  7 24  2  0
  9  8  1  0
  9 10  1  0
 13  9  2  0
 11 10  1  0
 12 11  2  0
 12 13  1  0
 16 12  1  0
 13 14  1  0
 14 15  3  0
 19 16  1  0
 18 17  2  0
 20 21  1  0
 20 24  1  0
 22 23  2  0
M  END
$$$$
