
     RDKit          3D

 24 27  0  0  0  0  0  0  0  0999 V2000
  -21.6475   17.9629  -13.9507 C   0  0  0  0  0  0  0  0  0  0  0  0
  -23.0789   19.0322  -11.9843 C   0  0  0  0  0  0  0  0  0  0  0  0
  -23.6630   21.5643   -9.6944 C   0  0  0  0  0  0  0  0  0  0  0  0
  -23.3118   24.3280   -9.4981 C   0  0  0  0  0  0  0  0  0  0  0  0
  -22.5984   23.6178  -10.5027 C   0  0  0  0  0  0  0  0  0  0  0  0
  -22.7523   22.2431  -10.6285 C   0  0  0  0  0  0  0  0  0  0  0  0
  -24.6719   19.8679  -13.2115 C   0  0  0  0  0  0  0  0  0  0  0  0
  -16.2970   16.2913  -13.4869 N   0  0  0  0  0  0  0  0  0  0  0  0
  -17.5937   16.5199  -12.9878 C   0  0  0  0  0  0  0  0  0  0  0  0
  -18.2055   15.7921  -11.9124 N   0  0  0  0  0  0  0  0  0  0  0  0
  -19.4302   16.1914  -11.7431 N   0  0  0  0  0  0  0  0  0  0  0  0
  -19.7778   17.2040  -12.6481 C   0  0  0  0  0  0  0  0  0  0  0  0
  -18.6316   17.3295  -13.3194 C   0  0  0  0  0  0  0  0  0  0  0  0
  -18.3142   18.6787  -14.0760 C   0  0  0  0  0  0  0  0  0  0  0  0
  -18.1062   19.6080  -14.6057 N   0  0  0  0  0  0  0  0  0  0  0  0
  -21.0905   17.8030  -12.7376 C   0  0  0  0  0  0  0  0  0  0  0  0
  -22.8010   18.5587  -14.3221 C   0  0  0  0  0  0  0  0  0  0  0  0
  -23.5386   19.1153  -13.2958 C   0  0  0  0  0  0  0  0  0  0  0  0
  -21.8670   18.3731  -11.7007 C   0  0  0  0  0  0  0  0  0  0  0  0
  -23.9230   19.7302  -11.1879 N   0  0  0  0  0  0  0  0  0  0  0  0
  -23.7333   20.0520   -9.7658 C   0  0  0  0  0  0  0  0  0  0  0  0
  -24.2683   22.3296   -8.8129 C   0  0  0  0  0  0  0  0  0  0  0  0
  -24.1180   23.6874   -8.6932 N   0  0  0  0  0  0  0  0  0  0  0  0
  -24.9440   20.2619  -11.9396 C   0  0  0  0  0  0  0  0  0  0  0  0
 16  1  2  0
 17  1  1  0
  2 18  1  0
  2 19  2  0
 20  2  1  0
  3  6  2  0
 21  3  1  0
  3 22  1  0
  5  4  2  0
  4 23  1  0
  6  5  1  0
 18  7  1  0
  7 24  2  0
  9  8  1  0
  9 10  1  0
 13  9  2  0
 11 10  1  0
 12 11  2  0
 12 13  1  0
 16 12  1  0
 13 14  1  0
 14 15  3  0
 19 16  1  0
 18 17  2  0
 21 20  1  6
 20 24  1  0
 22 23  2  0
M  END
$$$$
