
     RDKit          3D

 24 27  0  0  0  0  0  0  0  0999 V2000
  -21.0903   20.0474  -11.7308 C   0  0  0  0  0  0  0  0  0  0  0  0
  -23.7068   19.5901  -11.6698 C   0  0  0  0  0  0  0  0  0  0  0  0
  -26.6484   18.2420  -10.2848 C   0  0  0  0  0  0  0  0  0  0  0  0
  -27.8025   17.7625   -7.7872 C   0  0  0  0  0  0  0  0  0  0  0  0
  -26.4728   18.2643   -7.8410 C   0  0  0  0  0  0  0  0  0  0  0  0
  -25.8705   18.5156   -9.0671 C   0  0  0  0  0  0  0  0  0  0  0  0
  -24.3029   21.4626  -10.7314 C   0  0  0  0  0  0  0  0  0  0  0  0
  -17.1198   16.6236  -13.7351 N   0  0  0  0  0  0  0  0  0  0  0  0
  -18.4180   16.9067  -13.2687 C   0  0  0  0  0  0  0  0  0  0  0  0
  -19.4781   15.9472  -13.1420 N   0  0  0  0  0  0  0  0  0  0  0  0
  -20.5701   16.5367  -12.7573 N   0  0  0  0  0  0  0  0  0  0  0  0
  -20.3833   17.9146  -12.5793 C   0  0  0  0  0  0  0  0  0  0  0  0
  -19.0905   18.0236  -12.8908 C   0  0  0  0  0  0  0  0  0  0  0  0
  -18.2569   19.2484  -12.3445 C   0  0  0  0  0  0  0  0  0  0  0  0
  -17.6847   20.1006  -11.9787 N   0  0  0  0  0  0  0  0  0  0  0  0
  -21.4320   18.8394  -12.2118 C   0  0  0  0  0  0  0  0  0  0  0  0
  -21.8497   21.0509  -11.2413 C   0  0  0  0  0  0  0  0  0  0  0  0
  -23.2083   20.8056  -11.2092 C   0  0  0  0  0  0  0  0  0  0  0  0
  -22.8287   18.6129  -12.1773 C   0  0  0  0  0  0  0  0  0  0  0  0
  -25.0418   19.5599  -11.4443 N   0  0  0  0  0  0  0  0  0  0  0  0
  -25.9411   18.4091  -11.6149 C   0  0  0  0  0  0  0  0  0  0  0  0
  -27.8679   17.7842  -10.1052 C   0  0  0  0  0  0  0  0  0  0  0  0
  -28.4620   17.5407   -8.8936 N   0  0  0  0  0  0  0  0  0  0  0  0
  -25.4447   20.7366  -10.8587 C   0  0  0  0  0  0  0  0  0  0  0  0
 16  1  2  0
 17  1  1  0
  2 18  1  0
  2 19  2  0
 20  2  1  0
  3  6  2  0
 21  3  1  0
  3 22  1  0
  5  4  2  0
  4 23  1  0
  6  5  1  0
 18  7  1  0
  7 24  2  0
  9  8  1  0
  9 10  1  0
 13  9  2  0
 11 10  1  0
 12 11  2  0
 12 13  1  0
 16 12  1  0
 13 14  1  0
 14 15  3  0
 19 16  1  0
 18 17  2  0
 21 20  1  6
 20 24  1  0
 22 23  2  0
M  END
$$$$
