
     RDKit          3D

 24 27  0  0  0  0  0  0  0  0999 V2000
  -21.2423   17.2800  -12.9550 C   0  0  0  0  0  0  0  0  0  0  0  0
  -22.7765   19.2882  -12.1348 C   0  0  0  0  0  0  0  0  0  0  0  0
  -24.4939   21.8991  -10.3887 C   0  0  0  0  0  0  0  0  0  0  0  0
  -25.9505   22.5310   -8.0911 C   0  0  0  0  0  0  0  0  0  0  0  0
  -25.4913   23.5898   -8.9223 C   0  0  0  0  0  0  0  0  0  0  0  0
  -24.7662   23.3095  -10.0733 C   0  0  0  0  0  0  0  0  0  0  0  0
  -24.7026   18.3161  -12.4302 C   0  0  0  0  0  0  0  0  0  0  0  0
  -15.6246   17.2235  -13.1349 N   0  0  0  0  0  0  0  0  0  0  0  0
  -16.8770   17.8641  -13.0723 C   0  0  0  0  0  0  0  0  0  0  0  0
  -17.0785   19.2853  -13.0604 N   0  0  0  0  0  0  0  0  0  0  0  0
  -18.3416   19.5558  -12.9205 N   0  0  0  0  0  0  0  0  0  0  0  0
  -19.1168   18.3913  -12.8299 C   0  0  0  0  0  0  0  0  0  0  0  0
  -18.1668   17.4613  -12.9430 C   0  0  0  0  0  0  0  0  0  0  0  0
  -18.5495   16.0112  -13.4369 C   0  0  0  0  0  0  0  0  0  0  0  0
  -18.8220   15.0091  -13.7673 N   0  0  0  0  0  0  0  0  0  0  0  0
  -20.5459   18.3775  -12.6116 C   0  0  0  0  0  0  0  0  0  0  0  0
  -22.5702   17.0352  -12.9398 C   0  0  0  0  0  0  0  0  0  0  0  0
  -23.3621   18.0840  -12.5157 C   0  0  0  0  0  0  0  0  0  0  0  0
  -21.3764   19.4360  -12.1723 C   0  0  0  0  0  0  0  0  0  0  0  0
  -23.7606   20.1758  -11.8566 N   0  0  0  0  0  0  0  0  0  0  0  0
  -23.6041   21.6117  -11.5815 C   0  0  0  0  0  0  0  0  0  0  0  0
  -24.9744   21.0115   -9.5459 C   0  0  0  0  0  0  0  0  0  0  0  0
  -25.6938   21.2904   -8.4122 N   0  0  0  0  0  0  0  0  0  0  0  0
  -24.9889   19.5824  -12.0281 C   0  0  0  0  0  0  0  0  0  0  0  0
 16  1  2  0
 17  1  1  0
  2 18  1  0
  2 19  2  0
 20  2  1  0
  3  6  2  0
 21  3  1  0
  3 22  1  0
  5  4  2  0
  4 23  1  0
  6  5  1  0
 18  7  1  0
  7 24  2  0
  9  8  1  0
  9 10  1  0
 13  9  2  0
 11 10  1  0
 12 11  2  0
 12 13  1  0
 16 12  1  0
 13 14  1  0
 14 15  3  0
 19 16  1  0
 18 17  2  0
 21 20  1  6
 20 24  1  0
 22 23  2  0
M  END
$$$$
