
     RDKit          3D

 24 27  0  0  0  0  0  0  0  0999 V2000
  -22.7347   18.1598  -12.4978 C   0  0  0  0  0  0  0  0  0  0  0  0
  -23.2078   20.6617  -11.4409 C   0  0  0  0  0  0  0  0  0  0  0  0
  -22.6795   23.0304   -9.1562 C   0  0  0  0  0  0  0  0  0  0  0  0
  -22.2429   23.1325   -6.4834 C   0  0  0  0  0  0  0  0  0  0  0  0
  -21.9721   21.9809   -7.1623 C   0  0  0  0  0  0  0  0  0  0  0  0
  -22.1899   21.9165   -8.5222 C   0  0  0  0  0  0  0  0  0  0  0  0
  -25.3976   20.3688  -11.0469 C   0  0  0  0  0  0  0  0  0  0  0  0
  -17.6053   16.3528  -13.4741 N   0  0  0  0  0  0  0  0  0  0  0  0
  -18.5193   17.4284  -13.3282 C   0  0  0  0  0  0  0  0  0  0  0  0
  -18.2977   18.7309  -13.6695 N   0  0  0  0  0  0  0  0  0  0  0  0
  -19.3765   19.4318  -13.3859 N   0  0  0  0  0  0  0  0  0  0  0  0
  -20.3227   18.6662  -12.8672 C   0  0  0  0  0  0  0  0  0  0  0  0
  -19.8022   17.3955  -12.8215 C   0  0  0  0  0  0  0  0  0  0  0  0
  -20.4663   16.2200  -12.3326 C   0  0  0  0  0  0  0  0  0  0  0  0
  -21.0264   15.2693  -11.9356 N   0  0  0  0  0  0  0  0  0  0  0  0
  -21.6763   19.0372  -12.4120 C   0  0  0  0  0  0  0  0  0  0  0  0
  -23.9973   18.5232  -12.0667 C   0  0  0  0  0  0  0  0  0  0  0  0
  -24.2545   19.7687  -11.5356 C   0  0  0  0  0  0  0  0  0  0  0  0
  -21.9373   20.2825  -11.8802 C   0  0  0  0  0  0  0  0  0  0  0  0
  -23.7160   21.7781  -10.9037 N   0  0  0  0  0  0  0  0  0  0  0  0
  -22.9245   22.9779  -10.6188 C   0  0  0  0  0  0  0  0  0  0  0  0
  -22.9441   24.1842   -8.4383 C   0  0  0  0  0  0  0  0  0  0  0  0
  -22.7222   24.2153   -7.1197 N   0  0  0  0  0  0  0  0  0  0  0  0
  -25.0465   21.6380  -10.6504 C   0  0  0  0  0  0  0  0  0  0  0  0
 16  1  2  0
 17  1  1  0
  2 18  1  0
  2 19  2  0
 20  2  1  0
  3  6  2  0
 21  3  1  0
  3 22  1  0
  5  4  2  0
  4 23  1  0
  6  5  1  0
 18  7  1  0
  7 24  2  0
  9  8  1  0
  9 10  1  0
 13  9  2  0
 11 10  1  0
 12 11  2  0
 12 13  1  0
 16 12  1  0
 13 14  1  0
 14 15  3  0
 19 16  1  0
 18 17  2  0
 20 21  1  0
 20 24  1  0
 22 23  2  0
M  END
$$$$
