
     RDKit          3D

 24 27  0  0  0  0  0  0  0  0999 V2000
  -22.7168   20.9426   -8.9833 C   0  0  0  0  0  0  0  0  0  0  0  0
  -23.0682   23.5561   -9.3073 C   0  0  0  0  0  0  0  0  0  0  0  0
  -21.8663   26.6370  -10.2792 C   0  0  0  0  0  0  0  0  0  0  0  0
  -20.0705   27.6651  -12.1548 C   0  0  0  0  0  0  0  0  0  0  0  0
  -19.9937   26.2851  -11.8198 C   0  0  0  0  0  0  0  0  0  0  0  0
  -20.8735   25.7418  -10.8924 C   0  0  0  0  0  0  0  0  0  0  0  0
  -24.2079   23.4642  -11.1607 C   0  0  0  0  0  0  0  0  0  0  0  0
  -19.9269   18.3879   -4.8457 N   0  0  0  0  0  0  0  0  0  0  0  0
  -20.2899   19.5171   -5.6048 C   0  0  0  0  0  0  0  0  0  0  0  0
  -19.8205   20.8537   -5.3737 N   0  0  0  0  0  0  0  0  0  0  0  0
  -20.3983   21.6780   -6.1951 N   0  0  0  0  0  0  0  0  0  0  0  0
  -21.2911   21.0192   -7.0520 C   0  0  0  0  0  0  0  0  0  0  0  0
  -21.1419   19.7614   -6.6328 C   0  0  0  0  0  0  0  0  0  0  0  0
  -21.5061   18.5680   -7.6007 C   0  0  0  0  0  0  0  0  0  0  0  0
  -21.7453   17.7458   -8.2746 N   0  0  0  0  0  0  0  0  0  0  0  0
  -22.1210   21.6828   -8.0323 C   0  0  0  0  0  0  0  0  0  0  0  0
  -23.4603   21.3065  -10.0502 C   0  0  0  0  0  0  0  0  0  0  0  0
  -23.6363   22.6662  -10.2148 C   0  0  0  0  0  0  0  0  0  0  0  0
  -22.3215   23.0718   -8.2158 C   0  0  0  0  0  0  0  0  0  0  0  0
  -23.3024   24.8182   -9.7389 N   0  0  0  0  0  0  0  0  0  0  0  0
  -22.7423   26.0599   -9.1852 C   0  0  0  0  0  0  0  0  0  0  0  0
  -21.8405   27.8911  -10.6736 C   0  0  0  0  0  0  0  0  0  0  0  0
  -20.9735   28.4244  -11.5925 N   0  0  0  0  0  0  0  0  0  0  0  0
  -24.0289   24.7870  -10.9056 C   0  0  0  0  0  0  0  0  0  0  0  0
 16  1  2  0
 17  1  1  0
  2 18  1  0
  2 19  2  0
 20  2  1  0
  3  6  2  0
 21  3  1  0
  3 22  1  0
  5  4  2  0
  4 23  1  0
  6  5  1  0
 18  7  1  0
  7 24  2  0
  9  8  1  0
  9 10  1  0
 13  9  2  0
 11 10  1  0
 12 11  2  0
 12 13  1  0
 16 12  1  0
 13 14  1  0
 14 15  3  0
 19 16  1  0
 18 17  2  0
 21 20  1  6
 20 24  1  0
 22 23  2  0
M  END
$$$$
