
     RDKit          3D

 24 27  0  0  0  0  0  0  0  0999 V2000
  -13.5531   11.0271  -26.5176 C   0  0  0  0  0  0  0  0  0  0  0  0
  -12.5261    9.0333  -27.9421 C   0  0  0  0  0  0  0  0  0  0  0  0
  -10.2885    6.6529  -29.0131 C   0  0  0  0  0  0  0  0  0  0  0  0
   -7.6277    6.6360  -29.8615 C   0  0  0  0  0  0  0  0  0  0  0  0
   -8.2045    7.8672  -29.4442 C   0  0  0  0  0  0  0  0  0  0  0  0
   -9.5246    7.9096  -29.0144 C   0  0  0  0  0  0  0  0  0  0  0  0
  -12.8463    9.8968  -29.9155 C   0  0  0  0  0  0  0  0  0  0  0  0
  -12.8138   10.0469  -20.6948 N   0  0  0  0  0  0  0  0  0  0  0  0
  -13.2470   10.0483  -22.0346 C   0  0  0  0  0  0  0  0  0  0  0  0
  -14.6007    9.8426  -22.4656 N   0  0  0  0  0  0  0  0  0  0  0  0
  -14.6584    9.8270  -23.7634 N   0  0  0  0  0  0  0  0  0  0  0  0
  -13.3967   10.0188  -24.3433 C   0  0  0  0  0  0  0  0  0  0  0  0
  -12.6467   10.1508  -23.2478 C   0  0  0  0  0  0  0  0  0  0  0  0
  -11.2642   10.9087  -23.3352 C   0  0  0  0  0  0  0  0  0  0  0  0
  -10.3048   11.4210  -23.4021 N   0  0  0  0  0  0  0  0  0  0  0  0
  -13.1399    9.9920  -25.7658 C   0  0  0  0  0  0  0  0  0  0  0  0
  -13.5205   11.2173  -27.8541 C   0  0  0  0  0  0  0  0  0  0  0  0
  -12.9887   10.1761  -28.5889 C   0  0  0  0  0  0  0  0  0  0  0  0
  -12.5909    8.9407  -26.5383 C   0  0  0  0  0  0  0  0  0  0  0  0
  -12.1475    8.1324  -28.8796 N   0  0  0  0  0  0  0  0  0  0  0  0
  -11.7589    6.7323  -28.6539 C   0  0  0  0  0  0  0  0  0  0  0  0
   -9.6441    5.5802  -29.4171 C   0  0  0  0  0  0  0  0  0  0  0  0
   -8.3393    5.5400  -29.8370 N   0  0  0  0  0  0  0  0  0  0  0  0
  -12.3326    8.6581  -30.1363 C   0  0  0  0  0  0  0  0  0  0  0  0
 16  1  2  0
 17  1  1  0
  2 18  1  0
  2 19  2  0
 20  2  1  0
  3  6  2  0
 21  3  1  0
  3 22  1  0
  5  4  2  0
  4 23  1  0
  6  5  1  0
 18  7  1  0
  7 24  2  0
  9  8  1  0
  9 10  1  0
 13  9  2  0
 11 10  1  0
 12 11  2  0
 12 13  1  0
 16 12  1  0
 13 14  1  0
 14 15  3  0
 19 16  1  0
 18 17  2  0
 21 20  1  6
 20 24  1  0
 22 23  2  0
M  END
$$$$
