
     RDKit          3D

 24 27  0  0  0  0  0  0  0  0999 V2000
  -22.3263   21.1611   -6.0120 C   0  0  0  0  0  0  0  0  0  0  0  0
  -23.7574   21.8603   -8.2621 C   0  0  0  0  0  0  0  0  0  0  0  0
  -23.8094   22.1495  -11.4778 C   0  0  0  0  0  0  0  0  0  0  0  0
  -22.6187   20.7491  -13.4692 C   0  0  0  0  0  0  0  0  0  0  0  0
  -22.7519   22.1013  -13.5889 C   0  0  0  0  0  0  0  0  0  0  0  0
  -23.3558   22.8248  -12.5826 C   0  0  0  0  0  0  0  0  0  0  0  0
  -25.5301   20.5430   -7.8638 C   0  0  0  0  0  0  0  0  0  0  0  0
  -17.7090   23.7662   -4.5132 N   0  0  0  0  0  0  0  0  0  0  0  0
  -18.6445   23.4231   -5.5234 C   0  0  0  0  0  0  0  0  0  0  0  0
  -18.4976   23.6248   -6.8651 N   0  0  0  0  0  0  0  0  0  0  0  0
  -19.5729   23.1767   -7.4803 N   0  0  0  0  0  0  0  0  0  0  0  0
  -20.4453   22.6791   -6.6192 C   0  0  0  0  0  0  0  0  0  0  0  0
  -19.8789   22.8245   -5.3759 C   0  0  0  0  0  0  0  0  0  0  0  0
  -20.4586   22.4269   -4.1238 C   0  0  0  0  0  0  0  0  0  0  0  0
  -20.9222   22.0846   -3.1025 N   0  0  0  0  0  0  0  0  0  0  0  0
  -21.7683   22.0783   -6.8752 C   0  0  0  0  0  0  0  0  0  0  0  0
  -23.5674   20.6073   -6.2667 C   0  0  0  0  0  0  0  0  0  0  0  0
  -24.2986   20.9434   -7.3855 C   0  0  0  0  0  0  0  0  0  0  0  0
  -22.5028   22.4122   -7.9937 C   0  0  0  0  0  0  0  0  0  0  0  0
  -24.6509   22.0068   -9.2489 N   0  0  0  0  0  0  0  0  0  0  0  0
  -24.4661   22.9114  -10.3868 C   0  0  0  0  0  0  0  0  0  0  0  0
  -23.6589   20.7764  -11.3867 C   0  0  0  0  0  0  0  0  0  0  0  0
  -23.0686   20.1025  -12.3799 N   0  0  0  0  0  0  0  0  0  0  0  0
  -25.7430   21.2206   -9.0414 C   0  0  0  0  0  0  0  0  0  0  0  0
 16  1  2  0
 17  1  1  0
  2 18  1  0
  2 19  2  0
 20  2  1  0
  3  6  2  0
 21  3  1  0
  3 22  1  0
  5  4  2  0
  4 23  1  0
  6  5  1  0
 18  7  1  0
  7 24  2  0
  9  8  1  0
  9 10  1  0
 13  9  2  0
 11 10  1  0
 12 11  2  0
 12 13  1  0
 16 12  1  0
 13 14  1  0
 14 15  3  0
 19 16  1  0
 18 17  2  0
 20 21  1  0
 20 24  1  0
 22 23  2  0
M  END
$$$$
