
     RDKit          3D

 24 27  0  0  0  0  0  0  0  0999 V2000
  -13.0591   10.7315  -26.5975 C   0  0  0  0  0  0  0  0  0  0  0  0
  -12.0855    8.6105  -28.0650 C   0  0  0  0  0  0  0  0  0  0  0  0
  -12.1043    5.3967  -28.8915 C   0  0  0  0  0  0  0  0  0  0  0  0
  -13.9783    3.4638  -29.2026 C   0  0  0  0  0  0  0  0  0  0  0  0
  -14.2342    4.5170  -28.3745 C   0  0  0  0  0  0  0  0  0  0  0  0
  -13.2889    5.5067  -28.2081 C   0  0  0  0  0  0  0  0  0  0  0  0
  -12.5156    9.4754  -30.0906 C   0  0  0  0  0  0  0  0  0  0  0  0
  -13.5809   10.6039  -21.1243 N   0  0  0  0  0  0  0  0  0  0  0  0
  -13.0068   10.0679  -22.3061 C   0  0  0  0  0  0  0  0  0  0  0  0
  -12.0147    9.1331  -22.3721 N   0  0  0  0  0  0  0  0  0  0  0  0
  -11.7486    8.8877  -23.6388 N   0  0  0  0  0  0  0  0  0  0  0  0
  -12.5139    9.6126  -24.4384 C   0  0  0  0  0  0  0  0  0  0  0  0
  -13.3171   10.3662  -23.6170 C   0  0  0  0  0  0  0  0  0  0  0  0
  -14.3160   11.3096  -24.0342 C   0  0  0  0  0  0  0  0  0  0  0  0
  -15.1357   12.0840  -24.3556 N   0  0  0  0  0  0  0  0  0  0  0  0
  -12.5478    9.6510  -25.9129 C   0  0  0  0  0  0  0  0  0  0  0  0
  -13.0836   10.7516  -27.9798 C   0  0  0  0  0  0  0  0  0  0  0  0
  -12.6021    9.7017  -28.7316 C   0  0  0  0  0  0  0  0  0  0  0  0
  -12.0668    8.6023  -26.6684 C   0  0  0  0  0  0  0  0  0  0  0  0
  -11.6956    7.7452  -29.0097 N   0  0  0  0  0  0  0  0  0  0  0  0
  -11.0733    6.4503  -28.7209 C   0  0  0  0  0  0  0  0  0  0  0  0
  -11.8753    4.3151  -29.7246 C   0  0  0  0  0  0  0  0  0  0  0  0
  -12.8124    3.3711  -29.8653 N   0  0  0  0  0  0  0  0  0  0  0  0
  -11.9416    8.2365  -30.2555 C   0  0  0  0  0  0  0  0  0  0  0  0
 16  1  2  0
 17  1  1  0
  2 18  1  0
  2 19  2  0
 20  2  1  0
  3  6  2  0
 21  3  1  0
  3 22  1  0
  5  4  2  0
  4 23  1  0
  6  5  1  0
 18  7  1  0
  7 24  2  0
  9  8  1  0
  9 10  1  0
 13  9  2  0
 11 10  1  0
 12 11  2  0
 12 13  1  0
 16 12  1  0
 13 14  1  0
 14 15  3  0
 19 16  1  0
 18 17  2  0
 20 21  1  0
 20 24  1  0
 22 23  2  0
M  END
$$$$
