
     RDKit          3D

 24 27  0  0  0  0  0  0  0  0999 V2000
  -12.1392    9.5720  -26.4009 C   0  0  0  0  0  0  0  0  0  0  0  0
  -14.5311   10.7224  -25.6556 C   0  0  0  0  0  0  0  0  0  0  0  0
  -16.6078   11.2483  -23.2800 C   0  0  0  0  0  0  0  0  0  0  0  0
  -17.2584    9.7941  -21.0876 C   0  0  0  0  0  0  0  0  0  0  0  0
  -16.9884    9.1523  -22.2605 C   0  0  0  0  0  0  0  0  0  0  0  0
  -16.6561    9.8810  -23.3827 C   0  0  0  0  0  0  0  0  0  0  0  0
  -15.7913    9.7545  -27.2404 C   0  0  0  0  0  0  0  0  0  0  0  0
   -9.0047   11.6065  -21.6209 N   0  0  0  0  0  0  0  0  0  0  0  0
   -9.5310   11.2670  -22.8942 C   0  0  0  0  0  0  0  0  0  0  0  0
   -8.8187   11.0992  -24.0460 N   0  0  0  0  0  0  0  0  0  0  0  0
   -9.6527   10.7895  -25.0176 N   0  0  0  0  0  0  0  0  0  0  0  0
  -10.9002   10.7387  -24.5803 C   0  0  0  0  0  0  0  0  0  0  0  0
  -10.8467   11.0373  -23.2402 C   0  0  0  0  0  0  0  0  0  0  0  0
  -11.9611   11.1037  -22.3371 C   0  0  0  0  0  0  0  0  0  0  0  0
  -12.8834   11.1609  -21.6152 N   0  0  0  0  0  0  0  0  0  0  0  0
  -12.1367   10.4314  -25.3244 C   0  0  0  0  0  0  0  0  0  0  0  0
  -13.3069    9.2947  -27.0876 C   0  0  0  0  0  0  0  0  0  0  0  0
  -14.5125    9.8594  -26.7311 C   0  0  0  0  0  0  0  0  0  0  0  0
  -13.3448   10.9946  -24.9705 C   0  0  0  0  0  0  0  0  0  0  0  0
  -15.8007   11.1272  -25.5228 N   0  0  0  0  0  0  0  0  0  0  0  0
  -16.2563   12.0491  -24.4789 C   0  0  0  0  0  0  0  0  0  0  0  0
  -16.8873   11.8694  -22.0748 C   0  0  0  0  0  0  0  0  0  0  0  0
  -17.2065   11.1347  -21.0037 N   0  0  0  0  0  0  0  0  0  0  0  0
  -16.5973   10.5596  -26.4699 C   0  0  0  0  0  0  0  0  0  0  0  0
 16  1  2  0
 17  1  1  0
  2 18  1  0
  2 19  2  0
 20  2  1  0
  3  6  2  0
 21  3  1  0
  3 22  1  0
  5  4  2  0
  4 23  1  0
  6  5  1  0
 18  7  1  0
  7 24  2  0
  9  8  1  0
  9 10  1  0
 13  9  2  0
 11 10  1  0
 12 11  2  0
 12 13  1  0
 16 12  1  0
 13 14  1  0
 14 15  3  0
 19 16  1  0
 18 17  2  0
 20 21  1  0
 20 24  1  0
 22 23  2  0
M  END
$$$$
