
     RDKit          3D

 24 27  0  0  0  0  0  0  0  0999 V2000
  -24.4322   19.8301  -10.8303 C   0  0  0  0  0  0  0  0  0  0  0  0
  -23.3317   22.1389   -9.8016 C   0  0  0  0  0  0  0  0  0  0  0  0
  -21.2462   23.5287   -7.7305 C   0  0  0  0  0  0  0  0  0  0  0  0
  -18.8222   22.8094   -6.7550 C   0  0  0  0  0  0  0  0  0  0  0  0
  -19.0879   22.6365   -8.0817 C   0  0  0  0  0  0  0  0  0  0  0  0
  -20.3173   22.9986   -8.5899 C   0  0  0  0  0  0  0  0  0  0  0  0
  -22.6594   23.0030  -11.7605 C   0  0  0  0  0  0  0  0  0  0  0  0
  -27.4592   16.4118   -7.7271 N   0  0  0  0  0  0  0  0  0  0  0  0
  -26.4548   17.4091   -7.8274 C   0  0  0  0  0  0  0  0  0  0  0  0
  -25.5879   17.7868   -6.8434 N   0  0  0  0  0  0  0  0  0  0  0  0
  -24.8063   18.7386   -7.3110 N   0  0  0  0  0  0  0  0  0  0  0  0
  -25.1012   19.0264   -8.5681 C   0  0  0  0  0  0  0  0  0  0  0  0
  -26.1407   18.1977   -8.9151 C   0  0  0  0  0  0  0  0  0  0  0  0
  -26.8009   18.1468  -10.1892 C   0  0  0  0  0  0  0  0  0  0  0  0
  -27.3577   18.1088  -11.2205 N   0  0  0  0  0  0  0  0  0  0  0  0
  -24.4816   20.0192   -9.4668 C   0  0  0  0  0  0  0  0  0  0  0  0
  -23.8478   20.7704  -11.6587 C   0  0  0  0  0  0  0  0  0  0  0  0
  -23.2921   21.9308  -11.1643 C   0  0  0  0  0  0  0  0  0  0  0  0
  -23.9246   21.1813   -8.9756 C   0  0  0  0  0  0  0  0  0  0  0  0
  -22.7329   23.3171   -9.5856 N   0  0  0  0  0  0  0  0  0  0  0  0
  -22.5765   23.9199   -8.2592 C   0  0  0  0  0  0  0  0  0  0  0  0
  -20.9453   23.6914   -6.3891 C   0  0  0  0  0  0  0  0  0  0  0  0
  -19.7435   23.3305   -5.9262 N   0  0  0  0  0  0  0  0  0  0  0  0
  -22.3100   23.8730  -10.7544 C   0  0  0  0  0  0  0  0  0  0  0  0
 16  1  2  0
 17  1  1  0
  2 18  1  0
  2 19  2  0
 20  2  1  0
  3  6  2  0
 21  3  1  0
  3 22  1  0
  5  4  2  0
  4 23  1  0
  6  5  1  0
 18  7  1  0
  7 24  2  0
  9  8  1  0
  9 10  1  0
 13  9  2  0
 11 10  1  0
 12 11  2  0
 12 13  1  0
 16 12  1  0
 13 14  1  0
 14 15  3  0
 19 16  1  0
 18 17  2  0
 20 21  1  0
 20 24  1  0
 22 23  2  0
M  END
$$$$
