
     RDKit          3D

 24 27  0  0  0  0  0  0  0  0999 V2000
  -22.0542   16.5966  -12.2615 C   0  0  0  0  0  0  0  0  0  0  0  0
  -22.7799   19.1088  -11.7911 C   0  0  0  0  0  0  0  0  0  0  0  0
  -23.2623   22.4348  -10.5774 C   0  0  0  0  0  0  0  0  0  0  0  0
  -23.8199   23.9473   -8.2968 C   0  0  0  0  0  0  0  0  0  0  0  0
  -23.2504   24.5976   -9.4261 C   0  0  0  0  0  0  0  0  0  0  0  0
  -22.9632   23.8746  -10.5768 C   0  0  0  0  0  0  0  0  0  0  0  0
  -24.8944   18.7332  -11.4304 C   0  0  0  0  0  0  0  0  0  0  0  0
  -16.2911   17.0124  -14.1222 N   0  0  0  0  0  0  0  0  0  0  0  0
  -17.5976   16.7915  -13.6454 C   0  0  0  0  0  0  0  0  0  0  0  0
  -18.2856   15.5321  -13.6738 N   0  0  0  0  0  0  0  0  0  0  0  0
  -19.4987   15.6761  -13.2313 N   0  0  0  0  0  0  0  0  0  0  0  0
  -19.7636   17.0015  -12.8594 C   0  0  0  0  0  0  0  0  0  0  0  0
  -18.5850   17.5662  -13.1283 C   0  0  0  0  0  0  0  0  0  0  0  0
  -18.1785   18.9075  -12.4010 C   0  0  0  0  0  0  0  0  0  0  0  0
  -17.9105   19.8343  -11.8943 N   0  0  0  0  0  0  0  0  0  0  0  0
  -21.0448   17.4757  -12.3865 C   0  0  0  0  0  0  0  0  0  0  0  0
  -23.3505   16.7804  -11.9308 C   0  0  0  0  0  0  0  0  0  0  0  0
  -23.7220   18.0886  -11.6909 C   0  0  0  0  0  0  0  0  0  0  0  0
  -21.4459   18.8082  -12.1280 C   0  0  0  0  0  0  0  0  0  0  0  0
  -23.4085   20.2939  -11.6058 N   0  0  0  0  0  0  0  0  0  0  0  0
  -22.8377   21.6360  -11.7934 C   0  0  0  0  0  0  0  0  0  0  0  0
  -23.7914   21.9503   -9.4753 C   0  0  0  0  0  0  0  0  0  0  0  0
  -24.0780   22.6669   -8.3418 N   0  0  0  0  0  0  0  0  0  0  0  0
  -24.7459   20.0827  -11.3676 C   0  0  0  0  0  0  0  0  0  0  0  0
 16  1  2  0
 17  1  1  0
  2 18  1  0
  2 19  2  0
 20  2  1  0
  3  6  2  0
 21  3  1  0
  3 22  1  0
  5  4  2  0
  4 23  1  0
  6  5  1  0
 18  7  1  0
  7 24  2  0
  9  8  1  0
  9 10  1  0
 13  9  2  0
 11 10  1  0
 12 11  2  0
 12 13  1  0
 16 12  1  0
 13 14  1  0
 14 15  3  0
 19 16  1  0
 18 17  2  0
 21 20  1  6
 20 24  1  0
 22 23  2  0
M  END
$$$$
