
     RDKit          3D

147155  0  0  0  0  0  0  0  0999 V2000
  200.4411  -13.2722   48.2838 C   0  0  0  0  0  0  0  0  0  0  0  0
  201.3772  -12.4910   48.4705 O   0  0  0  0  0  0  0  0  0  0  0  0
  199.0989  -12.7681   47.8196 C   0  0  0  0  0  0  0  0  0  0  0  0
  200.5737  -14.6297   48.4816 N   0  0  0  0  0  0  0  0  0  0  0  0
  201.8006  -15.3597   48.8573 C   0  0  2  0  0  0  0  0  0  0  0  0
  202.7648  -15.5298   47.6653 C   0  0  0  0  0  0  0  0  0  0  0  0
  202.3902  -15.4819   46.5004 O   0  0  0  0  0  0  0  0  0  0  0  0
  201.3030  -16.7404   49.2937 C   0  0  0  0  0  0  0  0  0  0  0  0
  199.8417  -16.5132   49.6568 C   0  0  0  0  0  0  0  0  0  0  0  0
  199.3980  -15.4628   48.6561 C   0  0  0  0  0  0  0  0  0  0  0  0
  204.0931  -15.6383   48.0042 N   0  0  0  0  0  0  0  0  0  0  0  0
  205.2090  -15.3331   47.0927 C   0  0  1  0  0  0  0  0  0  0  0  0
  205.5315  -13.8202   47.0415 C   0  0  0  0  0  0  0  0  0  0  0  0
  205.8122  -13.2022   48.3857 C   0  0  0  0  0  0  0  0  0  0  0  0
  205.4953  -11.8827   48.8402 C   0  0  0  0  0  0  0  0  0  0  0  0
  204.8343  -10.7763   48.2664 C   0  0  0  0  0  0  0  0  0  0  0  0
  205.9733  -11.7607   50.1466 C   0  0  0  0  0  0  0  0  0  0  0  0
  206.5108  -12.9779   50.4989 N   0  0  0  0  0  0  0  0  0  0  0  0
  206.4172  -13.8461   49.4480 C   0  0  0  0  0  0  0  0  0  0  0  0
  205.8582  -10.5806   50.8937 C   0  0  0  0  0  0  0  0  0  0  0  0
  205.2218   -9.4971   50.2902 C   0  0  0  0  0  0  0  0  0  0  0  0
  205.1155   -8.0036   51.1351 Cl  0  0  0  0  0  0  0  0  0  0  0  0
  204.7055   -9.5868   49.0030 C   0  0  0  0  0  0  0  0  0  0  0  0
  206.4660  -16.1754   47.4125 C   0  0  0  0  0  0  0  0  0  0  0  0
  207.4094  -15.7551   48.0813 O   0  0  0  0  0  0  0  0  0  0  0  0
  206.5196  -17.3930   46.7701 N   0  0  0  0  0  0  0  0  0  0  0  0
  206.0751  -17.5768   45.3869 C   0  0  2  0  0  0  0  0  0  0  0  0
  206.0962  -19.0862   45.0291 C   0  0  0  0  0  0  0  0  0  0  0  0
  206.5160  -19.5128   43.9546 O   0  0  0  0  0  0  0  0  0  0  0  0
  206.9906  -16.7610   44.4444 C   0  0  0  0  0  0  0  0  0  0  0  0
  208.4738  -17.1143   44.6210 C   0  0  0  0  0  0  0  0  0  0  0  0
  209.1366  -16.3184   45.7427 C   0  0  0  0  0  0  0  0  0  0  0  0
  210.6044  -16.4407   45.7287 N   0  0  0  0  0  0  0  0  0  0  0  0
  211.4187  -15.6471   45.0165 C   0  0  0  0  0  0  0  0  0  0  0  0
  211.4540  -14.3248   45.2039 N   0  0  0  0  0  4  0  0  0  0  0  0
  212.2234  -16.1813   44.0941 N   0  0  0  0  0  0  0  0  0  0  0  0
  205.5421  -19.9085   45.9906 N   0  0  0  0  0  0  0  0  0  0  0  0
  204.1029  -20.1487   46.0752 C   0  0  2  0  0  0  0  0  0  0  0  0
  203.5026  -19.4035   47.2979 C   0  0  0  0  0  0  0  0  0  0  0  0
  203.8021  -18.2382   47.5574 O   0  0  0  0  0  0  0  0  0  0  0  0
  203.6913  -21.6173   45.8236 C   0  0  0  0  0  0  0  0  0  0  0  0
  203.8865  -22.2677   44.4415 C   0  0  1  0  0  0  0  0  0  0  0  0
  205.3099  -22.7818   44.2457 C   0  0  0  0  0  0  0  0  0  0  0  0
  202.8703  -23.3475   44.0691 C   0  0  0  0  0  0  0  0  0  0  0  0
  202.5629  -20.1004   48.0601 N   0  0  0  0  0  0  0  0  0  0  0  0
  201.3036  -19.4101   48.3642 C   0  0  2  0  0  0  0  0  0  0  0  0
  200.3011  -19.7512   47.2332 C   0  0  0  0  0  0  0  0  0  0  0  0
  200.3749  -20.8065   46.5964 O   0  0  0  0  0  0  0  0  0  0  0  0
  201.5132  -17.8924   48.4615 C   0  0  0  0  0  0  0  0  0  0  0  0
  201.0754  -17.0970   47.2248 C   0  0  0  0  0  0  0  0  0  0  0  0
  201.8477  -15.7916   47.0052 C   0  0  0  0  0  0  0  0  0  0  0  0
  203.3048  -16.0332   47.0328 N   0  0  0  0  0  0  0  0  0  0  0  0
  204.1207  -15.9234   45.9724 C   0  0  0  0  0  0  0  0  0  0  0  0
  204.8165  -14.8114   45.7295 N   0  0  0  0  0  4  0  0  0  0  0  0
  204.2474  -16.9521   45.1271 N   0  0  0  0  0  0  0  0  0  0  0  0
  199.3264  -18.8004   46.9950 N   0  0  0  0  0  0  0  0  0  0  0  0
  198.0342  -19.2797   46.5183 C   0  0  2  0  0  0  0  0  0  0  0  0
  196.8923  -18.2306   46.5310 C   0  0  0  0  0  0  0  0  0  0  0  0
  195.9735  -18.2380   47.3422 O   0  0  0  0  0  0  0  0  0  0  0  0
  197.5809  -20.5473   47.2616 C   0  0  0  0  0  0  0  0  0  0  0  0
  198.6713  -21.5446   47.7033 C   0  0  0  0  0  0  0  0  0  0  0  0
  198.7623  -21.7894   49.2144 C   0  0  0  0  0  0  0  0  0  0  0  0
  198.6172  -23.2736   49.5695 C   0  0  0  0  0  0  0  0  0  0  0  0
  199.8859  -23.8391   50.0407 N   0  0  0  0  0  4  0  0  0  0  0  0
  196.9319  -17.3704   45.4486 N   0  0  0  0  0  0  0  0  0  0  0  0
  196.5932  -17.7808   44.0878 C   0  0  1  0  0  0  0  0  0  0  0  0
  197.2588  -16.9208   43.0032 C   0  0  0  0  0  0  0  0  0  0  0  0
  196.9412  -19.2849   44.0037 C   0  0  0  0  0  0  0  0  0  0  0  0
  197.4203  -19.9032   44.9633 O   0  0  0  0  0  0  0  0  0  0  0  0
  197.4883  -15.4467   43.3563 C   0  0  1  0  0  0  0  0  0  0  0  0
  197.2354  -14.4807   42.1633 C   0  0  0  0  0  0  0  0  0  0  0  0
  196.3766  -14.6615   44.1080 C   0  0  0  0  0  0  0  0  0  0  0  0
  195.8370  -14.2139   42.7387 C   0  0  0  0  0  0  0  0  0  0  0  0
  196.5805  -19.9715   42.8572 N   0  0  0  0  0  0  0  0  0  0  0  0
  197.2846  -21.2156   42.5226 C   0  0  2  0  0  0  0  0  0  0  0  0
  198.7114  -20.9602   42.0390 C   0  0  0  0  0  0  0  0  0  0  0  0
  199.5344  -21.8761   41.9413 O   0  0  0  0  0  0  0  0  0  0  0  0
  196.4495  -21.8755   41.4186 C   0  0  0  0  0  0  0  0  0  0  0  0
  195.0577  -21.3388   41.6801 C   0  0  2  0  0  0  0  0  0  0  0  0
  195.3248  -19.8905   42.1114 C   0  0  0  0  0  0  0  0  0  0  0  0
  194.4837  -22.0488   42.7752 O   0  0  0  0  0  0  0  0  0  0  0  0
  198.9422  -19.6601   41.6841 N   0  0  0  0  0  0  0  0  0  0  0  0
  199.8742  -18.7534   42.3781 C   0  0  2  0  0  0  0  0  0  0  0  0
  199.2031  -17.3882   42.6722 C   0  0  0  0  0  0  0  0  0  0  0  0
  199.8074  -16.3360   42.8456 O   0  0  0  0  0  0  0  0  0  0  0  0
  201.0933  -18.5747   41.4979 C   0  0  0  0  0  0  0  0  0  0  0  0
  200.9142  -17.3723   40.5846 C   0  0  0  0  0  0  0  0  0  0  0  0
  200.4067  -16.3735   41.1549 O   0  0  0  0  0  1  0  0  0  0  0  0
  201.2289  -17.5644   39.3796 O   0  0  0  0  0  0  0  0  0  0  0  0
  197.8232  -17.4249   42.7570 N   0  0  0  0  0  0  0  0  0  0  0  0
  197.1667  -18.0305   43.9043 C   0  0  2  0  0  0  0  0  0  0  0  0
  197.7901  -19.4186   44.1135 C   0  0  0  0  0  0  0  0  0  0  0  0
  198.8905  -19.7336   43.6411 O   0  0  0  0  0  0  0  0  0  0  0  0
  195.6435  -18.0713   43.7372 C   0  0  0  0  0  0  0  0  0  0  0  0
  195.0596  -16.7706   43.6394 O   0  0  0  0  0  0  0  0  0  0  0  0
  197.0052  -20.3365   44.7801 N   0  0  0  0  0  0  0  0  0  0  0  0
  196.3733  -21.4238   44.0523 C   0  0  2  0  0  0  0  0  0  0  0  0
  195.2117  -22.0111   44.8510 C   0  0  0  0  0  0  0  0  0  0  0  0
  195.0513  -23.2293   44.9256 O   0  0  0  0  0  0  0  0  0  0  0  0
  197.3761  -22.5111   43.6180 C   0  0  0  0  0  0  0  0  0  0  0  0
  198.1537  -23.0677   44.7898 C   0  0  0  0  0  0  0  0  0  0  0  0
  198.0750  -24.4239   45.1273 C   0  0  0  0  0  0  0  0  0  0  0  0
  198.9377  -22.2168   45.5850 C   0  0  0  0  0  0  0  0  0  0  0  0
  198.7539  -24.9163   46.2380 C   0  0  0  0  0  0  0  0  0  0  0  0
  199.6123  -22.7112   46.7015 C   0  0  0  0  0  0  0  0  0  0  0  0
  199.5194  -24.0610   47.0293 C   0  0  0  0  0  0  0  0  0  0  0  0
  194.3523  -21.1218   45.4532 N   0  0  0  0  0  0  0  0  0  0  0  0
  193.8421  -19.9566   44.6872 C   0  0  2  0  0  0  0  0  0  0  0  0
  194.5917  -18.6266   44.9659 C   0  0  0  0  0  0  0  0  0  0  0  0
  195.8026  -18.5039   44.8029 O   0  0  0  0  0  0  0  0  0  0  0  0
  192.3321  -19.7923   44.9663 C   0  0  0  0  0  0  0  0  0  0  0  0
  191.4880  -20.9418   44.4454 C   0  0  0  0  0  0  0  0  0  0  0  0
  190.9071  -21.7936   45.4084 C   0  0  0  0  0  0  0  0  0  0  0  0
  190.1465  -22.8919   45.0330 C   0  0  0  0  0  0  0  0  0  0  0  0
  191.2626  -21.1899   43.0651 C   0  0  0  0  0  0  0  0  0  0  0  0
  190.4642  -22.3076   42.6986 C   0  0  0  0  0  0  0  0  0  0  0  0
  189.9310  -23.1480   43.6848 C   0  0  0  0  0  0  0  0  0  0  0  0
  191.7875  -20.3974   42.0185 C   0  0  0  0  0  0  0  0  0  0  0  0
  191.5235  -20.6868   40.6803 C   0  0  0  0  0  0  0  0  0  0  0  0
  190.7424  -21.7824   40.3432 C   0  0  0  0  0  0  0  0  0  0  0  0
  190.2154  -22.5867   41.3451 C   0  0  0  0  0  0  0  0  0  0  0  0
  193.7874  -17.5712   45.3278 N   0  0  0  0  0  0  0  0  0  0  0  0
  192.3217  -17.5627   45.1929 C   0  0  2  0  0  0  0  0  0  0  0  0
  191.6904  -18.3593   44.0256 C   0  0  0  0  0  0  0  0  0  0  0  0
  191.8094  -19.5851   44.0010 O   0  0  0  0  0  0  0  0  0  0  0  0
  191.6706  -16.1736   45.3226 C   0  0  0  0  0  0  0  0  0  0  0  0
  191.0804  -15.8647   46.7097 C   0  0  0  0  0  0  0  0  0  0  0  0
  189.5925  -16.2044   46.8832 C   0  0  0  0  0  0  0  0  0  0  0  0
  189.3278  -17.2641   47.9633 C   0  0  0  0  0  0  0  0  0  0  0  0
  188.9957  -16.6166   49.2492 N   0  0  0  0  0  4  0  0  0  0  0  0
  190.9908  -17.6477   43.0874 N   0  0  0  0  0  0  0  0  0  0  0  0
  191.2993  -17.6424   41.6463 C   0  0  2  0  0  0  0  0  0  0  0  0
  192.1458  -16.4094   41.2296 C   0  0  0  0  0  0  0  0  0  0  0  0
  193.0671  -16.5451   40.4093 O   0  0  0  0  0  0  0  0  0  0  0  0
  190.1054  -18.0998   40.8052 C   0  0  0  0  0  0  0  0  0  0  0  0
  190.3015  -18.5086   39.3468 C   0  0  0  0  0  0  0  0  0  0  0  0
  189.0158  -19.2229   38.9916 C   0  0  0  0  0  0  0  0  0  0  0  0
  188.9140  -19.7318   37.8340 O   0  0  0  0  0  1  0  0  0  0  0  0
  188.1914  -19.4708   39.9153 O   0  0  0  0  0  0  0  0  0  0  0  0
  191.7544  -15.1347   41.6120 N   0  0  0  0  0  0  0  0  0  0  0  0
  191.5820  -13.9283   40.7892 C   0  0  2  0  0  0  0  0  0  0  0  0
  192.8644  -13.2298   40.3074 C   0  0  0  0  0  0  0  0  0  0  0  0
  192.8898  -12.2526   39.5591 O   0  0  0  0  0  0  0  0  0  0  0  0
  190.7763  -12.9558   41.6648 C   0  0  0  0  0  0  0  0  0  0  0  0
  190.9957  -13.4712   43.0820 C   0  0  0  0  0  0  0  0  0  0  0  0
  191.0637  -14.9722   42.8844 C   0  0  0  0  0  0  0  0  0  0  0  0
  194.0237  -13.7961   40.7604 N   0  0  0  0  0  0  0  0  0  0  0  0
  1  2  2  0
  1  3  1  0
  1  4  1  0
  4  5  1  0
  4 10  1  0
  5  6  1  6
  5  8  1  0
  6  7  2  0
  6 11  1  0
  8  9  1  0
  9 10  1  0
 11 12  1  0
 12 13  1  1
 12 24  1  0
 13 14  1  0
 14 15  1  0
 14 19  2  0
 15 16  2  0
 15 17  1  0
 16 23  1  0
 17 18  1  0
 17 20  2  0
 18 19  1  0
 20 21  1  0
 21 22  1  0
 21 23  2  0
 24 25  2  0
 24 26  1  0
 26 27  1  0
 27 28  1  0
 27 30  1  6
 28 29  2  0
 28 37  1  0
 30 31  1  0
 31 32  1  0
 32 33  1  0
 33 34  1  0
 34 35  2  0
 34 36  1  0
 37 38  1  0
 38 39  1  0
 38 41  1  1
 39 40  2  0
 39 45  1  0
 41 42  1  0
 42 43  1  1
 42 44  1  0
 45 46  1  0
 46 47  1  0
 46 49  1  6
 47 48  2  0
 47 56  1  0
 49 50  1  0
 50 51  1  0
 51 52  1  0
 52 53  1  0
 53 54  2  0
 53 55  1  0
 56 57  1  0
 57 58  1  0
 57 60  1  1
 58 59  2  0
 58 65  1  0
 60 61  1  0
 61 62  1  0
 62 63  1  0
 63 64  1  0
 65 66  1  0
 66 67  1  6
 66 68  1  0
 70 67  1  6
 68 69  2  0
 68 74  1  0
 70 71  1  0
 70 72  1  0
 71 73  1  0
 72 73  1  0
 74 75  1  0
 74 80  1  0
 75 76  1  6
 75 78  1  0
 76 77  2  0
 76 82  1  0
 78 79  1  0
 79 80  1  0
 79 81  1  1
 82 83  1  0
 83 84  1  0
 83 86  1  6
 84 85  2  0
 84 90  1  0
 86 87  1  0
 87 88  1  0
 87 89  2  0
 90 91  1  0
 91 92  1  0
 91 94  1  6
 92 93  2  0
 92 96  1  0
 94 95  1  0
 96 97  1  0
 97 98  1  0
 97100  1  1
 98 99  2  0
 98107  1  0
100101  1  0
101102  2  0
101103  1  0
102104  1  0
103105  2  0
104106  2  0
105106  1  0
107108  1  0
108109  1  0
108111  1  1
109110  2  0
109122  1  0
111112  1  0
112113  2  0
112115  1  0
113114  1  0
114117  2  0
115116  2  0
115118  1  0
116117  1  0
116121  1  0
118119  2  0
119120  1  0
120121  2  0
122123  1  0
123124  1  0
123126  1  6
124125  2  0
124131  1  0
126127  1  0
127128  1  0
128129  1  0
129130  1  0
131132  1  0
132133  1  0
132135  1  6
133134  2  0
133140  1  0
135136  1  0
136137  1  0
137138  1  0
137139  2  0
140141  1  0
140146  1  0
141142  1  1
141144  1  0
142143  2  0
142147  1  0
144145  1  0
145146  1  0
M  CHG  6  35   1  54   1  64   1  88  -1 130   1 138  -1
M  END
$$$$
