
     RDKit          3D

147155  0  0  0  0  0  0  0  0999 V2000
  210.1538  -11.9731   45.2780 C   0  0  0  0  0  0  0  0  0  0  0  0
  210.2840  -13.0214   44.6413 O   0  0  0  0  0  0  0  0  0  0  0  0
  211.0185  -10.7765   44.9753 C   0  0  0  0  0  0  0  0  0  0  0  0
  209.2193  -11.8411   46.2823 N   0  0  0  0  0  0  0  0  0  0  0  0
  208.9392  -12.7988   47.3703 C   0  0  2  0  0  0  0  0  0  0  0  0
  208.1140  -14.0078   46.8836 C   0  0  0  0  0  0  0  0  0  0  0  0
  208.4821  -15.1652   47.0403 O   0  0  0  0  0  0  0  0  0  0  0  0
  208.1039  -11.9999   48.3745 C   0  0  0  0  0  0  0  0  0  0  0  0
  208.4363  -10.5466   48.0645 C   0  0  0  0  0  0  0  0  0  0  0  0
  208.6178  -10.5492   46.5582 C   0  0  0  0  0  0  0  0  0  0  0  0
  206.8856  -13.6951   46.3506 N   0  0  0  0  0  0  0  0  0  0  0  0
  205.8970  -14.6919   45.9053 C   0  0  1  0  0  0  0  0  0  0  0  0
  206.3367  -15.4223   44.6136 C   0  0  0  0  0  0  0  0  0  0  0  0
  205.1974  -15.8481   43.7259 C   0  0  0  0  0  0  0  0  0  0  0  0
  205.2544  -16.5782   42.4964 C   0  0  0  0  0  0  0  0  0  0  0  0
  206.2983  -17.1492   41.7382 C   0  0  0  0  0  0  0  0  0  0  0  0
  203.9467  -16.7149   42.0262 C   0  0  0  0  0  0  0  0  0  0  0  0
  203.1156  -16.1407   42.9612 N   0  0  0  0  0  0  0  0  0  0  0  0
  203.8590  -15.6196   43.9823 C   0  0  0  0  0  0  0  0  0  0  0  0
  203.6327  -17.3583   40.8214 C   0  0  0  0  0  0  0  0  0  0  0  0
  204.6883  -17.8906   40.0828 C   0  0  0  0  0  0  0  0  0  0  0  0
  204.3671  -18.6286   38.5636 Cl  0  0  0  0  0  0  0  0  0  0  0  0
  206.0011  -17.8024   40.5303 C   0  0  0  0  0  0  0  0  0  0  0  0
  205.5316  -15.6888   47.0299 C   0  0  0  0  0  0  0  0  0  0  0  0
  204.8022  -15.4007   47.9781 O   0  0  0  0  0  0  0  0  0  0  0  0
  206.2012  -16.8913   46.9708 N   0  0  0  0  0  0  0  0  0  0  0  0
  205.9858  -17.9643   47.9439 C   0  0  2  0  0  0  0  0  0  0  0  0
  206.3123  -17.4477   49.3698 C   0  0  0  0  0  0  0  0  0  0  0  0
  207.4470  -17.4661   49.8440 O   0  0  0  0  0  0  0  0  0  0  0  0
  206.8675  -19.1781   47.5683 C   0  0  0  0  0  0  0  0  0  0  0  0
  208.3095  -18.7714   47.2343 C   0  0  0  0  0  0  0  0  0  0  0  0
  208.4365  -17.2885   46.8937 C   0  0  0  0  0  0  0  0  0  0  0  0
  208.1132  -16.4183   48.0372 N   0  0  0  0  0  0  0  0  0  0  0  0
  208.9955  -15.6044   48.6362 C   0  0  0  0  0  0  0  0  0  0  0  0
  210.1573  -15.2804   48.0618 N   0  0  0  0  0  4  0  0  0  0  0  0
  208.7156  -15.0944   49.8385 N   0  0  0  0  0  0  0  0  0  0  0  0
  205.2118  -17.0262   50.0901 N   0  0  0  0  0  0  0  0  0  0  0  0
  204.1160  -17.9285   50.4380 C   0  0  2  0  0  0  0  0  0  0  0  0
  202.7482  -17.2471   50.1630 C   0  0  0  0  0  0  0  0  0  0  0  0
  202.4417  -16.1755   50.6853 O   0  0  0  0  0  0  0  0  0  0  0  0
  204.3168  -18.6816   51.7729 C   0  0  0  0  0  0  0  0  0  0  0  0
  203.5307  -18.2788   53.0343 C   0  0  1  0  0  0  0  0  0  0  0  0
  203.8505  -19.1822   54.2219 C   0  0  0  0  0  0  0  0  0  0  0  0
  203.6341  -16.8075   53.4365 C   0  0  0  0  0  0  0  0  0  0  0  0
  201.9019  -17.8804   49.2506 N   0  0  0  0  0  0  0  0  0  0  0  0
  200.9011  -17.0454   48.5755 C   0  0  2  0  0  0  0  0  0  0  0  0
  200.0627  -17.9725   47.6600 C   0  0  0  0  0  0  0  0  0  0  0  0
  199.5147  -17.5517   46.6367 O   0  0  0  0  0  0  0  0  0  0  0  0
  201.5698  -15.9346   47.7535 C   0  0  0  0  0  0  0  0  0  0  0  0
  200.6124  -14.8685   47.2051 C   0  0  0  0  0  0  0  0  0  0  0  0
  200.6771  -13.5230   47.9359 C   0  0  0  0  0  0  0  0  0  0  0  0
  201.8154  -13.4914   48.8770 N   0  0  0  0  0  0  0  0  0  0  0  0
  202.1378  -12.4467   49.6561 C   0  0  0  0  0  0  0  0  0  0  0  0
  201.5693  -12.2527   50.8472 N   0  0  0  0  0  4  0  0  0  0  0  0
  203.0538  -11.5675   49.2361 N   0  0  0  0  0  0  0  0  0  0  0  0
  199.9780  -19.2911   48.0657 N   0  0  0  0  0  0  0  0  0  0  0  0
  199.2463  -20.2068   47.1979 C   0  0  2  0  0  0  0  0  0  0  0  0
  198.0948  -19.5670   46.3797 C   0  0  0  0  0  0  0  0  0  0  0  0
  197.1508  -18.9725   46.8876 O   0  0  0  0  0  0  0  0  0  0  0  0
  198.7179  -21.4294   47.9667 C   0  0  0  0  0  0  0  0  0  0  0  0
  198.4703  -22.7241   47.1661 C   0  0  0  0  0  0  0  0  0  0  0  0
  197.4988  -23.7189   47.8129 C   0  0  0  0  0  0  0  0  0  0  0  0
  196.0373  -23.4026   47.4749 C   0  0  0  0  0  0  0  0  0  0  0  0
  195.1390  -24.4705   47.9265 N   0  0  0  0  0  4  0  0  0  0  0  0
  198.1605  -19.8575   45.0290 N   0  0  0  0  0  0  0  0  0  0  0  0
  198.5255  -18.8705   44.0153 C   0  0  1  0  0  0  0  0  0  0  0  0
  199.0881  -19.4913   42.7281 C   0  0  0  0  0  0  0  0  0  0  0  0
  197.2637  -18.0034   43.7996 C   0  0  0  0  0  0  0  0  0  0  0  0
  197.2368  -16.7994   44.0868 O   0  0  0  0  0  0  0  0  0  0  0  0
  199.5165  -18.5062   41.6342 C   0  0  1  0  0  0  0  0  0  0  0  0
  201.0410  -18.1965   41.6464 C   0  0  0  0  0  0  0  0  0  0  0  0
  199.7269  -19.0236   40.1831 C   0  0  0  0  0  0  0  0  0  0  0  0
  201.2115  -19.2339   40.5271 C   0  0  0  0  0  0  0  0  0  0  0  0
  196.1860  -18.5766   43.1472 N   0  0  0  0  0  0  0  0  0  0  0  0
  195.5880  -17.8710   42.0069 C   0  0  2  0  0  0  0  0  0  0  0  0
  194.7957  -16.6386   42.4407 C   0  0  0  0  0  0  0  0  0  0  0  0
  194.1773  -16.6111   43.5097 O   0  0  0  0  0  0  0  0  0  0  0  0
  194.6687  -18.8935   41.3280 C   0  0  0  0  0  0  0  0  0  0  0  0
  195.3038  -20.2178   41.6972 C   0  0  2  0  0  0  0  0  0  0  0  0
  195.7765  -19.9808   43.1378 C   0  0  0  0  0  0  0  0  0  0  0  0
  196.4424  -20.4349   40.8670 O   0  0  0  0  0  0  0  0  0  0  0  0
  194.8976  -15.5903   41.5689 N   0  0  0  0  0  0  0  0  0  0  0  0
  194.3119  -14.2558   41.7886 C   0  0  2  0  0  0  0  0  0  0  0  0
  193.0233  -14.0712   40.9482 C   0  0  0  0  0  0  0  0  0  0  0  0
  192.1899  -13.1914   41.1321 O   0  0  0  0  0  0  0  0  0  0  0  0
  195.3522  -13.2220   41.4121 C   0  0  0  0  0  0  0  0  0  0  0  0
  196.5924  -13.9001   40.8516 C   0  0  0  0  0  0  0  0  0  0  0  0
  197.6702  -13.3580   41.2048 O   0  0  0  0  0  1  0  0  0  0  0  0
  196.3684  -14.8562   40.0618 O   0  0  0  0  0  0  0  0  0  0  0  0
  192.8418  -15.0093   39.9484 N   0  0  0  0  0  0  0  0  0  0  0  0
  191.6463  -14.9892   39.1211 C   0  0  2  0  0  0  0  0  0  0  0  0
  190.4629  -15.4007   40.0097 C   0  0  0  0  0  0  0  0  0  0  0  0
  189.3178  -14.9603   39.8415 O   0  0  0  0  0  0  0  0  0  0  0  0
  191.7983  -15.8662   37.8732 C   0  0  0  0  0  0  0  0  0  0  0  0
  191.5236  -17.2457   38.1259 O   0  0  0  0  0  0  0  0  0  0  0  0
  190.7679  -16.2199   41.0769 N   0  0  0  0  0  0  0  0  0  0  0  0
  189.8461  -17.2678   41.4812 C   0  0  2  0  0  0  0  0  0  0  0  0
  190.1640  -18.5788   40.7653 C   0  0  0  0  0  0  0  0  0  0  0  0
  189.2613  -19.3335   40.4036 O   0  0  0  0  0  0  0  0  0  0  0  0
  188.3694  -16.8626   41.3029 C   0  0  0  0  0  0  0  0  0  0  0  0
  187.9104  -15.9011   42.3763 C   0  0  0  0  0  0  0  0  0  0  0  0
  186.9665  -14.9061   42.0958 C   0  0  0  0  0  0  0  0  0  0  0  0
  188.4599  -15.9682   43.6664 C   0  0  0  0  0  0  0  0  0  0  0  0
  186.5886  -13.9938   43.0766 C   0  0  0  0  0  0  0  0  0  0  0  0
  188.0844  -15.0490   44.6462 C   0  0  0  0  0  0  0  0  0  0  0  0
  187.1497  -14.0604   44.3513 C   0  0  0  0  0  0  0  0  0  0  0  0
  191.4918  -18.8803   40.5704 N   0  0  0  0  0  0  0  0  0  0  0  0
  191.8764  -20.2240   40.0691 C   0  0  2  0  0  0  0  0  0  0  0  0
  191.2436  -20.6057   38.7044 C   0  0  0  0  0  0  0  0  0  0  0  0
  191.7869  -21.3748   37.9162 O   0  0  0  0  0  0  0  0  0  0  0  0
  191.5258  -21.2804   41.1395 C   0  0  0  0  0  0  0  0  0  0  0  0
  192.3417  -21.1505   42.4134 C   0  0  0  0  0  0  0  0  0  0  0  0
  191.6305  -20.8755   43.6004 C   0  0  0  0  0  0  0  0  0  0  0  0
  192.2881  -20.7051   44.8106 C   0  0  0  0  0  0  0  0  0  0  0  0
  193.7543  -21.2913   42.4607 C   0  0  0  0  0  0  0  0  0  0  0  0
  194.4099  -21.1338   43.7122 C   0  0  0  0  0  0  0  0  0  0  0  0
  193.6707  -20.8298   44.8630 C   0  0  0  0  0  0  0  0  0  0  0  0
  194.5634  -21.5747   41.3364 C   0  0  0  0  0  0  0  0  0  0  0  0
  195.9467  -21.7102   41.4476 C   0  0  0  0  0  0  0  0  0  0  0  0
  196.5678  -21.5521   42.6779 C   0  0  0  0  0  0  0  0  0  0  0  0
  195.8049  -21.2670   43.8027 C   0  0  0  0  0  0  0  0  0  0  0  0
  189.9902  -20.0861   38.4795 N   0  0  0  0  0  0  0  0  0  0  0  0
  189.6963  -19.0266   37.5008 C   0  0  2  0  0  0  0  0  0  0  0  0
  188.3424  -19.0780   36.7524 C   0  0  0  0  0  0  0  0  0  0  0  0
  188.1875  -19.8978   35.8462 O   0  0  0  0  0  0  0  0  0  0  0  0
  190.8473  -18.7100   36.5287 C   0  0  0  0  0  0  0  0  0  0  0  0
  191.8394  -17.6450   37.0284 C   0  0  0  0  0  0  0  0  0  0  0  0
  191.2208  -16.2865   37.3905 C   0  0  0  0  0  0  0  0  0  0  0  0
  190.2656  -15.7428   36.3175 C   0  0  0  0  0  0  0  0  0  0  0  0
  190.0620  -16.7470   35.2530 N   0  0  0  0  0  4  0  0  0  0  0  0
  187.3620  -18.2180   37.1711 N   0  0  0  0  0  0  0  0  0  0  0  0
  187.3572  -17.5328   38.4758 C   0  0  2  0  0  0  0  0  0  0  0  0
  186.3644  -18.1811   39.4781 C   0  0  0  0  0  0  0  0  0  0  0  0
  186.3697  -19.4116   39.6396 O   0  0  0  0  0  0  0  0  0  0  0  0
  187.4427  -16.0125   38.3225 C   0  0  0  0  0  0  0  0  0  0  0  0
  187.4664  -15.1135   39.5569 C   0  0  0  0  0  0  0  0  0  0  0  0
  186.4607  -14.0290   39.2383 C   0  0  0  0  0  0  0  0  0  0  0  0
  185.3581  -14.3712   38.7122 O   0  0  0  0  0  1  0  0  0  0  0  0
  186.6612  -12.8700   39.6975 O   0  0  0  0  0  0  0  0  0  0  0  0
  185.6171  -17.3836   40.3324 N   0  0  0  0  0  0  0  0  0  0  0  0
  184.8332  -17.7676   41.5157 C   0  0  2  0  0  0  0  0  0  0  0  0
  183.4986  -18.4869   41.2586 C   0  0  0  0  0  0  0  0  0  0  0  0
  182.6979  -18.8101   42.1360 O   0  0  0  0  0  0  0  0  0  0  0  0
  184.5619  -16.4523   42.2627 C   0  0  0  0  0  0  0  0  0  0  0  0
  184.7592  -15.3794   41.1986 C   0  0  0  0  0  0  0  0  0  0  0  0
  185.8789  -15.9507   40.3523 C   0  0  0  0  0  0  0  0  0  0  0  0
  183.2546  -18.7781   39.9451 N   0  0  0  0  0  0  0  0  0  0  0  0
  1  2  2  0
  1  3  1  0
  1  4  1  0
  4  5  1  0
  4 10  1  0
  5  6  1  6
  5  8  1  0
  6  7  2  0
  6 11  1  0
  8  9  1  0
  9 10  1  0
 11 12  1  0
 12 13  1  6
 12 24  1  0
 13 14  1  0
 14 15  1  0
 14 19  2  0
 15 16  2  0
 15 17  1  0
 16 23  1  0
 17 18  1  0
 17 20  2  0
 18 19  1  0
 20 21  1  0
 21 22  1  0
 21 23  2  0
 24 25  2  0
 24 26  1  0
 26 27  1  0
 27 28  1  0
 27 30  1  6
 28 29  2  0
 28 37  1  0
 30 31  1  0
 31 32  1  0
 32 33  1  0
 33 34  1  0
 34 35  2  0
 34 36  1  0
 37 38  1  0
 38 39  1  0
 38 41  1  1
 39 40  2  0
 39 45  1  0
 41 42  1  0
 42 43  1  1
 42 44  1  0
 45 46  1  0
 46 47  1  0
 46 49  1  6
 47 48  2  0
 47 56  1  0
 49 50  1  0
 50 51  1  0
 51 52  1  0
 52 53  1  0
 53 54  2  0
 53 55  1  0
 56 57  1  0
 57 58  1  0
 57 60  1  1
 58 59  2  0
 58 65  1  0
 60 61  1  0
 61 62  1  0
 62 63  1  0
 63 64  1  0
 65 66  1  0
 66 67  1  6
 66 68  1  0
 70 67  1  1
 68 69  2  0
 68 74  1  0
 70 71  1  0
 70 72  1  0
 71 73  1  0
 72 73  1  0
 74 75  1  0
 74 80  1  0
 75 76  1  1
 75 78  1  0
 76 77  2  0
 76 82  1  0
 78 79  1  0
 79 80  1  0
 79 81  1  6
 82 83  1  0
 83 84  1  0
 83 86  1  6
 84 85  2  0
 84 90  1  0
 86 87  1  0
 87 88  1  0
 87 89  2  0
 90 91  1  0
 91 92  1  0
 91 94  1  6
 92 93  2  0
 92 96  1  0
 94 95  1  0
 96 97  1  0
 97 98  1  0
 97100  1  6
 98 99  2  0
 98107  1  0
100101  1  0
101102  2  0
101103  1  0
102104  1  0
103105  2  0
104106  2  0
105106  1  0
107108  1  0
108109  1  0
108111  1  1
109110  2  0
109122  1  0
111112  1  0
112113  2  0
112115  1  0
113114  1  0
114117  2  0
115116  2  0
115118  1  0
116117  1  0
116121  1  0
118119  2  0
119120  1  0
120121  2  0
122123  1  0
123124  1  0
123126  1  6
124125  2  0
124131  1  0
126127  1  0
127128  1  0
128129  1  0
129130  1  0
131132  1  0
132133  1  0
132135  1  6
133134  2  0
133140  1  0
135136  1  0
136137  1  0
137138  1  0
137139  2  0
140141  1  0
140146  1  0
141142  1  6
141144  1  0
142143  2  0
142147  1  0
144145  1  0
145146  1  0
M  CHG  6  35   1  54   1  64   1  88  -1 130   1 138  -1
M  END
$$$$
