
     RDKit          3D

147155  0  0  0  0  0  0  0  0999 V2000
  174.0124  -17.4101    3.1857 C   0  0  0  0  0  0  0  0  0  0  0  0
  172.9603  -16.7743    3.2873 O   0  0  0  0  0  0  0  0  0  0  0  0
  174.2318  -18.3559    2.0332 C   0  0  0  0  0  0  0  0  0  0  0  0
  175.0311  -17.2861    4.1057 N   0  0  0  0  0  0  0  0  0  0  0  0
  175.0508  -16.4218    5.3023 C   0  0  2  0  0  0  0  0  0  0  0  0
  175.3113  -14.9432    4.9482 C   0  0  0  0  0  0  0  0  0  0  0  0
  175.7200  -14.1298    5.7672 O   0  0  0  0  0  0  0  0  0  0  0  0
  176.2253  -16.9476    6.1319 C   0  0  0  0  0  0  0  0  0  0  0  0
  176.4246  -18.3734    5.6357 C   0  0  0  0  0  0  0  0  0  0  0  0
  176.0947  -18.2725    4.1583 C   0  0  0  0  0  0  0  0  0  0  0  0
  175.1476  -14.6270    3.6200 N   0  0  0  0  0  0  0  0  0  0  0  0
  175.3559  -13.2825    3.0559 C   0  0  1  0  0  0  0  0  0  0  0  0
  175.1594  -13.2502    1.5211 C   0  0  0  0  0  0  0  0  0  0  0  0
  175.0861  -11.8645    0.9364 C   0  0  0  0  0  0  0  0  0  0  0  0
  176.1583  -11.0404    0.4679 C   0  0  0  0  0  0  0  0  0  0  0  0
  177.5545  -11.2104    0.3573 C   0  0  0  0  0  0  0  0  0  0  0  0
  175.6049   -9.8326    0.0380 C   0  0  0  0  0  0  0  0  0  0  0  0
  174.2400   -9.9352    0.1840 N   0  0  0  0  0  0  0  0  0  0  0  0
  173.9227  -11.1506    0.7217 C   0  0  0  0  0  0  0  0  0  0  0  0
  176.3768   -8.7745   -0.4603 C   0  0  0  0  0  0  0  0  0  0  0  0
  177.7558   -8.9639   -0.5343 C   0  0  0  0  0  0  0  0  0  0  0  0
  178.7570   -7.6738   -1.0718 Cl  0  0  0  0  0  0  0  0  0  0  0  0
  178.3433  -10.1618   -0.1448 C   0  0  0  0  0  0  0  0  0  0  0  0
  174.4905  -12.2153    3.7660 C   0  0  0  0  0  0  0  0  0  0  0  0
  174.0264  -11.2304    3.1928 O   0  0  0  0  0  0  0  0  0  0  0  0
  174.3930  -12.3712    5.1314 N   0  0  0  0  0  0  0  0  0  0  0  0
  173.1515  -12.1248    5.8680 C   0  0  2  0  0  0  0  0  0  0  0  0
  173.4328  -12.1696    7.3930 C   0  0  0  0  0  0  0  0  0  0  0  0
  173.4833  -13.2186    8.0330 O   0  0  0  0  0  0  0  0  0  0  0  0
  172.0972  -13.1795    5.4579 C   0  0  0  0  0  0  0  0  0  0  0  0
  170.8430  -13.1256    6.3411 C   0  0  0  0  0  0  0  0  0  0  0  0
  169.5885  -12.7510    5.5557 C   0  0  0  0  0  0  0  0  0  0  0  0
  169.4217  -13.5646    4.3393 N   0  0  0  0  0  0  0  0  0  0  0  0
  168.3833  -14.3851    4.1196 C   0  0  0  0  0  0  0  0  0  0  0  0
  167.4699  -14.6330    5.0625 N   0  0  0  0  0  4  0  0  0  0  0  0
  168.2452  -14.9742    2.9288 N   0  0  0  0  0  0  0  0  0  0  0  0
  173.5560  -10.9289    7.9873 N   0  0  0  0  0  0  0  0  0  0  0  0
  173.9694  -10.7697    9.3800 C   0  0  2  0  0  0  0  0  0  0  0  0
  173.2562  -11.8168   10.2775 C   0  0  0  0  0  0  0  0  0  0  0  0
  172.1926  -12.3390    9.9438 O   0  0  0  0  0  0  0  0  0  0  0  0
  174.0318   -9.3006    9.8569 C   0  0  0  0  0  0  0  0  0  0  0  0
  174.8466   -8.9074   11.1031 C   0  0  1  0  0  0  0  0  0  0  0  0
  176.3051   -9.3431   10.9951 C   0  0  0  0  0  0  0  0  0  0  0  0
  174.7547   -7.4386   11.5171 C   0  0  0  0  0  0  0  0  0  0  0  0
  173.9065  -12.1806   11.4583 N   0  0  0  0  0  0  0  0  0  0  0  0
  173.2095  -13.1217   12.3434 C   0  0  2  0  0  0  0  0  0  0  0  0
  173.6624  -12.8187   13.7938 C   0  0  0  0  0  0  0  0  0  0  0  0
  173.3241  -11.7843   14.3770 O   0  0  0  0  0  0  0  0  0  0  0  0
  173.5304  -14.5756   11.9692 C   0  0  0  0  0  0  0  0  0  0  0  0
  172.3366  -15.3912   11.4560 C   0  0  0  0  0  0  0  0  0  0  0  0
  171.2462  -14.5577   10.7742 C   0  0  0  0  0  0  0  0  0  0  0  0
  169.9031  -15.0034   11.1983 N   0  0  0  0  0  0  0  0  0  0  0  0
  168.9335  -14.1929   11.6512 C   0  0  0  0  0  0  0  0  0  0  0  0
  169.0845  -13.4605   12.7559 N   0  0  0  0  0  4  0  0  0  0  0  0
  167.7773  -14.1096   10.9842 N   0  0  0  0  0  0  0  0  0  0  0  0
  174.4600  -13.7823   14.3818 N   0  0  0  0  0  0  0  0  0  0  0  0
  174.2732  -14.0181   15.8089 C   0  0  2  0  0  0  0  0  0  0  0  0
  174.0977  -12.7431   16.6739 C   0  0  0  0  0  0  0  0  0  0  0  0
  173.7773  -12.7650   17.8569 O   0  0  0  0  0  0  0  0  0  0  0  0
  175.3913  -14.8939   16.3984 C   0  0  0  0  0  0  0  0  0  0  0  0
  175.4352  -16.3765   15.9755 C   0  0  0  0  0  0  0  0  0  0  0  0
  175.9458  -16.6374   14.5533 C   0  0  0  0  0  0  0  0  0  0  0  0
  175.6326  -18.0611   14.0786 C   0  0  0  0  0  0  0  0  0  0  0  0
  176.3087  -19.0641   14.9082 N   0  0  0  0  0  4  0  0  0  0  0  0
  174.1962  -11.5725   15.9438 N   0  0  0  0  0  0  0  0  0  0  0  0
  173.8364  -10.2621   16.4808 C   0  0  1  0  0  0  0  0  0  0  0  0
  175.0174   -9.5132   17.1158 C   0  0  0  0  0  0  0  0  0  0  0  0
  173.1589   -9.5027   15.3169 C   0  0  0  0  0  0  0  0  0  0  0  0
  173.5287   -9.6344   14.1427 O   0  0  0  0  0  0  0  0  0  0  0  0
  175.6238  -10.1493   18.3721 C   0  0  1  0  0  0  0  0  0  0  0  0
  177.0066  -10.8157   18.1193 C   0  0  0  0  0  0  0  0  0  0  0  0
  176.3516   -9.2462   19.4076 C   0  0  0  0  0  0  0  0  0  0  0  0
  177.6665   -9.5413   18.6653 C   0  0  0  0  0  0  0  0  0  0  0  0
  172.0266   -8.7585   15.5993 N   0  0  0  0  0  0  0  0  0  0  0  0
  172.1745   -7.3339   15.9225 C   0  0  2  0  0  0  0  0  0  0  0  0
  172.7832   -7.1154   17.3068 C   0  0  0  0  0  0  0  0  0  0  0  0
  173.0478   -8.0633   18.0534 O   0  0  0  0  0  0  0  0  0  0  0  0
  170.7585   -6.7488   15.8558 C   0  0  0  0  0  0  0  0  0  0  0  0
  170.0553   -7.6735   14.8843 C   0  0  2  0  0  0  0  0  0  0  0  0
  170.6396   -9.0482   15.2363 C   0  0  0  0  0  0  0  0  0  0  0  0
  170.4429   -7.3332   13.5551 O   0  0  0  0  0  0  0  0  0  0  0  0
  173.0454   -5.8029   17.5861 N   0  0  0  0  0  0  0  0  0  0  0  0
  172.1351   -4.6830   17.2870 C   0  0  2  0  0  0  0  0  0  0  0  0
  171.1308   -4.4608   18.4458 C   0  0  0  0  0  0  0  0  0  0  0  0
  170.2150   -3.6463   18.4295 O   0  0  0  0  0  0  0  0  0  0  0  0
  171.4073   -5.0047   15.9987 C   0  0  0  0  0  0  0  0  0  0  0  0
  171.5640   -3.8652   15.0043 C   0  0  0  0  0  0  0  0  0  0  0  0
  172.5389   -4.0045   14.2229 O   0  0  0  0  0  1  0  0  0  0  0  0
  170.7482   -2.9153   15.1465 O   0  0  0  0  0  0  0  0  0  0  0  0
  171.3463   -5.2493   19.5613 N   0  0  0  0  0  0  0  0  0  0  0  0
  172.5746   -5.1269   20.3297 C   0  0  2  0  0  0  0  0  0  0  0  0
  173.5734   -6.1508   19.7700 C   0  0  0  0  0  0  0  0  0  0  0  0
  173.4494   -6.6588   18.6476 O   0  0  0  0  0  0  0  0  0  0  0  0
  172.3273   -5.2842   21.8342 C   0  0  0  0  0  0  0  0  0  0  0  0
  172.4082   -4.0462   22.5437 O   0  0  0  0  0  0  0  0  0  0  0  0
  174.5721   -6.5513   20.6334 N   0  0  0  0  0  0  0  0  0  0  0  0
  174.2722   -6.8009   22.0330 C   0  0  2  0  0  0  0  0  0  0  0  0
  175.0022   -8.0457   22.5328 C   0  0  0  0  0  0  0  0  0  0  0  0
  175.7783   -8.6575   21.7988 O   0  0  0  0  0  0  0  0  0  0  0  0
  172.7581   -6.8751   22.3130 C   0  0  0  0  0  0  0  0  0  0  0  0
  172.3917   -6.2314   23.6317 C   0  0  0  0  0  0  0  0  0  0  0  0
  173.3727   -5.6630   24.4525 C   0  0  0  0  0  0  0  0  0  0  0  0
  171.0585   -6.2327   24.0717 C   0  0  0  0  0  0  0  0  0  0  0  0
  173.0324   -5.1188   25.6875 C   0  0  0  0  0  0  0  0  0  0  0  0
  170.7206   -5.6923   25.3126 C   0  0  0  0  0  0  0  0  0  0  0  0
  171.7077   -5.1365   26.1217 C   0  0  0  0  0  0  0  0  0  0  0  0
  174.7333   -8.4562   23.8178 N   0  0  0  0  0  0  0  0  0  0  0  0
  175.4906   -9.5919   24.4022 C   0  0  2  0  0  0  0  0  0  0  0  0
  176.5298  -10.2319   23.4436 C   0  0  0  0  0  0  0  0  0  0  0  0
  176.6885   -9.8463   22.2884 O   0  0  0  0  0  0  0  0  0  0  0  0
  174.4924  -10.6582   24.9036 C   0  0  0  0  0  0  0  0  0  0  0  0
  173.7115  -10.2306   26.1334 C   0  0  0  0  0  0  0  0  0  0  0  0
  173.9138  -10.9821   27.3102 C   0  0  0  0  0  0  0  0  0  0  0  0
  173.2218  -10.6921   28.4776 C   0  0  0  0  0  0  0  0  0  0  0  0
  172.8094   -9.1336   26.1504 C   0  0  0  0  0  0  0  0  0  0  0  0
  172.1241   -8.8378   27.3602 C   0  0  0  0  0  0  0  0  0  0  0  0
  172.3291   -9.6280   28.4990 C   0  0  0  0  0  0  0  0  0  0  0  0
  172.5381   -8.3096   25.0339 C   0  0  0  0  0  0  0  0  0  0  0  0
  171.6473   -7.2400   25.1147 C   0  0  0  0  0  0  0  0  0  0  0  0
  170.9879   -6.9681   26.3045 C   0  0  0  0  0  0  0  0  0  0  0  0
  171.2252   -7.7606   27.4199 C   0  0  0  0  0  0  0  0  0  0  0  0
  177.3190  -11.2062   24.0088 N   0  0  0  0  0  0  0  0  0  0  0  0
  176.9197  -12.6156   24.1519 C   0  0  2  0  0  0  0  0  0  0  0  0
  175.8427  -13.1717   23.1893 C   0  0  0  0  0  0  0  0  0  0  0  0
  174.6753  -12.7990   23.3140 O   0  0  0  0  0  0  0  0  0  0  0  0
  176.6443  -13.0637   25.5988 C   0  0  0  0  0  0  0  0  0  0  0  0
  177.5567  -14.1929   26.1093 C   0  0  0  0  0  0  0  0  0  0  0  0
  177.0749  -15.6188   25.8027 C   0  0  0  0  0  0  0  0  0  0  0  0
  176.2170  -16.2295   26.9210 C   0  0  0  0  0  0  0  0  0  0  0  0
  176.9665  -16.2452   28.1943 N   0  0  0  0  0  4  0  0  0  0  0  0
  176.2615  -14.0349   22.2118 N   0  0  0  0  0  0  0  0  0  0  0  0
  177.4338  -13.8086   21.3479 C   0  0  2  0  0  0  0  0  0  0  0  0
  177.0612  -13.7961   19.8407 C   0  0  0  0  0  0  0  0  0  0  0  0
  177.9071  -13.4496   19.0013 O   0  0  0  0  0  0  0  0  0  0  0  0
  178.6666  -14.5643   21.8490 C   0  0  0  0  0  0  0  0  0  0  0  0
  180.0316  -13.8798   21.8768 C   0  0  0  0  0  0  0  0  0  0  0  0
  179.7420  -12.4683   21.4154 C   0  0  0  0  0  0  0  0  0  0  0  0
  179.4477  -12.2862   20.1948 O   0  0  0  0  0  1  0  0  0  0  0  0
  179.5934  -11.5691   22.2894 O   0  0  0  0  0  0  0  0  0  0  0  0
  175.8654  -14.3552   19.4143 N   0  0  0  0  0  0  0  0  0  0  0  0
  174.6110  -14.5470   20.1571 C   0  0  2  0  0  0  0  0  0  0  0  0
  174.5922  -15.6715   21.2058 C   0  0  0  0  0  0  0  0  0  0  0  0
  174.0485  -15.5916   22.3073 O   0  0  0  0  0  0  0  0  0  0  0  0
  173.5493  -14.8389   19.0851 C   0  0  0  0  0  0  0  0  0  0  0  0
  174.3617  -15.2986   17.8805 C   0  0  0  0  0  0  0  0  0  0  0  0
  175.6162  -14.4545   17.9825 C   0  0  0  0  0  0  0  0  0  0  0  0
  175.2624  -16.8044   20.8352 N   0  0  0  0  0  0  0  0  0  0  0  0
  1  2  2  0
  1  3  1  0
  1  4  1  0
  4  5  1  0
  4 10  1  0
  5  6  1  6
  5  8  1  0
  6  7  2  0
  6 11  1  0
  8  9  1  0
  9 10  1  0
 11 12  1  0
 12 13  1  6
 12 24  1  0
 13 14  1  0
 14 15  1  0
 14 19  2  0
 15 16  2  0
 15 17  1  0
 16 23  1  0
 17 18  1  0
 17 20  2  0
 18 19  1  0
 20 21  1  0
 21 22  1  0
 21 23  2  0
 24 25  2  0
 24 26  1  0
 26 27  1  0
 27 28  1  0
 27 30  1  1
 28 29  2  0
 28 37  1  0
 30 31  1  0
 31 32  1  0
 32 33  1  0
 33 34  1  0
 34 35  2  0
 34 36  1  0
 37 38  1  0
 38 39  1  0
 38 41  1  1
 39 40  2  0
 39 45  1  0
 41 42  1  0
 42 43  1  6
 42 44  1  0
 45 46  1  0
 46 47  1  0
 46 49  1  6
 47 48  2  0
 47 56  1  0
 49 50  1  0
 50 51  1  0
 51 52  1  0
 52 53  1  0
 53 54  2  0
 53 55  1  0
 56 57  1  0
 57 58  1  0
 57 60  1  1
 58 59  2  0
 58 65  1  0
 60 61  1  0
 61 62  1  0
 62 63  1  0
 63 64  1  0
 65 66  1  0
 66 67  1  6
 66 68  1  0
 70 67  1  6
 68 69  2  0
 68 74  1  0
 70 71  1  0
 70 72  1  0
 71 73  1  0
 72 73  1  0
 74 75  1  0
 74 80  1  0
 75 76  1  1
 75 78  1  0
 76 77  2  0
 76 82  1  0
 78 79  1  0
 79 80  1  0
 79 81  1  6
 82 83  1  0
 83 84  1  0
 83 86  1  6
 84 85  2  0
 84 90  1  0
 86 87  1  0
 87 88  1  0
 87 89  2  0
 90 91  1  0
 91 92  1  0
 91 94  1  1
 92 93  2  0
 92 96  1  0
 94 95  1  0
 96 97  1  0
 97 98  1  0
 97100  1  6
 98 99  2  0
 98107  1  0
100101  1  0
101102  2  0
101103  1  0
102104  1  0
103105  2  0
104106  2  0
105106  1  0
107108  1  0
108109  1  0
108111  1  6
109110  2  0
109122  1  0
111112  1  0
112113  2  0
112115  1  0
113114  1  0
114117  2  0
115116  2  0
115118  1  0
116117  1  0
116121  1  0
118119  2  0
119120  1  0
120121  2  0
122123  1  0
123124  1  0
123126  1  1
124125  2  0
124131  1  0
126127  1  0
127128  1  0
128129  1  0
129130  1  0
131132  1  0
132133  1  0
132135  1  6
133134  2  0
133140  1  0
135136  1  0
136137  1  0
137138  1  0
137139  2  0
140141  1  0
140146  1  0
141142  1  1
141144  1  0
142143  2  0
142147  1  0
144145  1  0
145146  1  0
M  CHG  6  35   1  54   1  64   1  88  -1 130   1 138  -1
M  END
$$$$
