
     RDKit          3D

147155  0  0  0  0  0  0  0  0999 V2000
  217.2026  -11.5454   49.6420 C   0  0  0  0  0  0  0  0  0  0  0  0
  217.5447  -11.2515   50.7901 O   0  0  0  0  0  0  0  0  0  0  0  0
  218.0256  -12.4983   48.8139 C   0  0  0  0  0  0  0  0  0  0  0  0
  216.0618  -11.0291   49.0663 N   0  0  0  0  0  0  0  0  0  0  0  0
  215.1877   -9.9724   49.6129 C   0  0  2  0  0  0  0  0  0  0  0  0
  214.2738  -10.4977   50.7392 C   0  0  0  0  0  0  0  0  0  0  0  0
  214.0956   -9.8859   51.7849 O   0  0  0  0  0  0  0  0  0  0  0  0
  214.3184   -9.5467   48.4267 C   0  0  0  0  0  0  0  0  0  0  0  0
  215.1173   -9.9778   47.2041 C   0  0  0  0  0  0  0  0  0  0  0  0
  215.7792  -11.2640   47.6621 C   0  0  0  0  0  0  0  0  0  0  0  0
  213.5935  -11.6552   50.4421 N   0  0  0  0  0  0  0  0  0  0  0  0
  213.3894  -12.7636   51.3902 C   0  0  1  0  0  0  0  0  0  0  0  0
  212.6034  -12.3253   52.6493 C   0  0  0  0  0  0  0  0  0  0  0  0
  213.3426  -11.3555   53.5329 C   0  0  0  0  0  0  0  0  0  0  0  0
  213.0019  -10.9191   54.8526 C   0  0  0  0  0  0  0  0  0  0  0  0
  211.9603  -11.2272   55.7529 C   0  0  0  0  0  0  0  0  0  0  0  0
  213.9726  -10.0001   55.2565 C   0  0  0  0  0  0  0  0  0  0  0  0
  214.9035   -9.9203   54.2457 N   0  0  0  0  0  0  0  0  0  0  0  0
  214.5317  -10.7303   53.2099 C   0  0  0  0  0  0  0  0  0  0  0  0
  213.9355   -9.3465   56.4956 C   0  0  0  0  0  0  0  0  0  0  0  0
  212.8804   -9.6539   57.3532 C   0  0  0  0  0  0  0  0  0  0  0  0
  212.7474   -8.8298   58.8562 Cl  0  0  0  0  0  0  0  0  0  0  0  0
  211.9104  -10.5851   57.0016 C   0  0  0  0  0  0  0  0  0  0  0  0
  212.7438  -13.9949   50.7127 C   0  0  0  0  0  0  0  0  0  0  0  0
  213.2087  -15.1313   50.7915 O   0  0  0  0  0  0  0  0  0  0  0  0
  211.6792  -13.7038   49.8881 N   0  0  0  0  0  0  0  0  0  0  0  0
  210.2865  -13.8979   50.2974 C   0  0  2  0  0  0  0  0  0  0  0  0
  209.3496  -13.1022   49.3509 C   0  0  0  0  0  0  0  0  0  0  0  0
  209.7259  -12.6304   48.2792 O   0  0  0  0  0  0  0  0  0  0  0  0
  210.1192  -13.4463   51.7670 C   0  0  0  0  0  0  0  0  0  0  0  0
  209.7171  -14.6037   52.6915 C   0  0  0  0  0  0  0  0  0  0  0  0
  208.2643  -14.5093   53.1513 C   0  0  0  0  0  0  0  0  0  0  0  0
  208.0267  -13.3541   54.0336 N   0  0  0  0  0  0  0  0  0  0  0  0
  207.0428  -13.2923   54.9435 C   0  0  0  0  0  0  0  0  0  0  0  0
  205.8091  -13.7306   54.6774 N   0  0  0  0  0  4  0  0  0  0  0  0
  207.2907  -12.7839   56.1534 N   0  0  0  0  0  0  0  0  0  0  0  0
  208.0731  -12.9089   49.8417 N   0  0  0  0  0  0  0  0  0  0  0  0
  207.1137  -12.0203   49.1890 C   0  0  2  0  0  0  0  0  0  0  0  0
  205.9484  -12.8423   48.5750 C   0  0  0  0  0  0  0  0  0  0  0  0
  206.1534  -13.7927   47.8201 O   0  0  0  0  0  0  0  0  0  0  0  0
  207.7627  -10.9024   48.3414 C   0  0  0  0  0  0  0  0  0  0  0  0
  209.2579  -10.5649   48.4890 C   0  0  1  0  0  0  0  0  0  0  0  0
  209.9424  -10.3909   47.1362 C   0  0  0  0  0  0  0  0  0  0  0  0
  209.5829   -9.3886   49.4098 C   0  0  0  0  0  0  0  0  0  0  0  0
  204.6550  -12.4873   48.9635 N   0  0  0  0  0  0  0  0  0  0  0  0
  203.6653  -13.5670   49.0597 C   0  0  2  0  0  0  0  0  0  0  0  0
  202.3767  -12.9638   49.6732 C   0  0  0  0  0  0  0  0  0  0  0  0
  202.0814  -13.1337   50.8600 O   0  0  0  0  0  0  0  0  0  0  0  0
  204.1875  -14.7218   49.9262 C   0  0  0  0  0  0  0  0  0  0  0  0
  204.8035  -15.8903   49.1459 C   0  0  0  0  0  0  0  0  0  0  0  0
  205.2082  -15.5483   47.7079 C   0  0  0  0  0  0  0  0  0  0  0  0
  206.4330  -14.7224   47.6901 N   0  0  0  0  0  0  0  0  0  0  0  0
  207.0822  -14.3371   46.5800 C   0  0  0  0  0  0  0  0  0  0  0  0
  207.0821  -13.0688   46.1667 N   0  0  0  0  0  4  0  0  0  0  0  0
  207.7516  -15.2427   45.8585 N   0  0  0  0  0  0  0  0  0  0  0  0
  201.5934  -12.2261   48.8056 N   0  0  0  0  0  0  0  0  0  0  0  0
  200.3328  -11.7093   49.3259 C   0  0  2  0  0  0  0  0  0  0  0  0
  199.1053  -11.8977   48.3972 C   0  0  0  0  0  0  0  0  0  0  0  0
  198.8366  -11.1457   47.4674 O   0  0  0  0  0  0  0  0  0  0  0  0
  200.4446  -10.2334   49.7433 C   0  0  0  0  0  0  0  0  0  0  0  0
  200.2755   -9.8996   51.2395 C   0  0  0  0  0  0  0  0  0  0  0  0
  199.5144   -8.6025   51.5396 C   0  0  0  0  0  0  0  0  0  0  0  0
  199.7101   -7.5502   50.4421 C   0  0  0  0  0  0  0  0  0  0  0  0
  201.1004   -7.5130   49.9762 N   0  0  0  0  0  4  0  0  0  0  0  0
  198.2621  -12.9137   48.8094 N   0  0  0  0  0  0  0  0  0  0  0  0
  196.8465  -12.9727   48.4525 C   0  0  1  0  0  0  0  0  0  0  0  0
  196.1147  -11.6327   48.6188 C   0  0  0  0  0  0  0  0  0  0  0  0
  196.7987  -13.5449   47.0169 C   0  0  0  0  0  0  0  0  0  0  0  0
  197.0607  -12.8526   46.0245 O   0  0  0  0  0  0  0  0  0  0  0  0
  194.6202  -11.7157   48.9506 C   0  0  1  0  0  0  0  0  0  0  0  0
  193.9663  -10.3263   49.2004 C   0  0  0  0  0  0  0  0  0  0  0  0
  193.5923  -11.8891   47.7969 C   0  0  0  0  0  0  0  0  0  0  0  0
  193.4618  -10.3569   47.7505 C   0  0  0  0  0  0  0  0  0  0  0  0
  196.5803  -14.9034   46.8666 N   0  0  0  0  0  0  0  0  0  0  0  0
  196.4839  -15.4623   45.5123 C   0  0  2  0  0  0  0  0  0  0  0  0
  195.1783  -15.0758   44.8190 C   0  0  0  0  0  0  0  0  0  0  0  0
  194.1065  -15.0412   45.4323 O   0  0  0  0  0  0  0  0  0  0  0  0
  196.5729  -16.9830   45.6887 C   0  0  0  0  0  0  0  0  0  0  0  0
  197.3596  -17.1294   46.9745 C   0  0  2  0  0  0  0  0  0  0  0  0
  196.8307  -15.9725   47.8329 C   0  0  0  0  0  0  0  0  0  0  0  0
  198.7415  -16.9085   46.7019 O   0  0  0  0  0  0  0  0  0  0  0  0
  195.3400  -14.7286   43.5065 N   0  0  0  0  0  0  0  0  0  0  0  0
  194.2475  -14.3203   42.6055 C   0  0  2  0  0  0  0  0  0  0  0  0
  193.3246  -15.5202   42.2746 C   0  0  0  0  0  0  0  0  0  0  0  0
  192.2242  -15.4287   41.7425 O   0  0  0  0  0  0  0  0  0  0  0  0
  194.8685  -13.7560   41.3451 C   0  0  0  0  0  0  0  0  0  0  0  0
  195.3185  -14.8820   40.4277 C   0  0  0  0  0  0  0  0  0  0  0  0
  195.7505  -14.4876   39.3150 O   0  0  0  0  0  1  0  0  0  0  0  0
  195.1311  -16.0446   40.8764 O   0  0  0  0  0  0  0  0  0  0  0  0
  193.8197  -16.7555   42.6506 N   0  0  0  0  0  0  0  0  0  0  0  0
  193.4054  -17.9632   41.9550 C   0  0  2  0  0  0  0  0  0  0  0  0
  194.1866  -19.1375   42.5634 C   0  0  0  0  0  0  0  0  0  0  0  0
  194.8388  -19.0333   43.6108 O   0  0  0  0  0  0  0  0  0  0  0  0
  193.5840  -17.8404   40.4376 C   0  0  0  0  0  0  0  0  0  0  0  0
  192.5890  -18.5541   39.7007 O   0  0  0  0  0  0  0  0  0  0  0  0
  194.2022  -20.2995   41.8200 N   0  0  0  0  0  0  0  0  0  0  0  0
  194.7717  -21.5153   42.3755 C   0  0  2  0  0  0  0  0  0  0  0  0
  196.2965  -21.4892   42.2938 C   0  0  0  0  0  0  0  0  0  0  0  0
  196.9525  -22.5206   42.4395 O   0  0  0  0  0  0  0  0  0  0  0  0
  194.1869  -22.7914   41.7384 C   0  0  0  0  0  0  0  0  0  0  0  0
  192.7135  -22.9529   42.0391 C   0  0  0  0  0  0  0  0  0  0  0  0
  192.2467  -24.0378   42.7905 C   0  0  0  0  0  0  0  0  0  0  0  0
  191.7838  -22.0325   41.5296 C   0  0  0  0  0  0  0  0  0  0  0  0
  190.8839  -24.2054   43.0185 C   0  0  0  0  0  0  0  0  0  0  0  0
  190.4179  -22.2058   41.7541 C   0  0  0  0  0  0  0  0  0  0  0  0
  189.9673  -23.2932   42.4974 C   0  0  0  0  0  0  0  0  0  0  0  0
  196.8916  -20.2682   42.0770 N   0  0  0  0  0  0  0  0  0  0  0  0
  198.3696  -20.1779   41.9675 C   0  0  2  0  0  0  0  0  0  0  0  0
  199.1215  -21.4868   42.3279 C   0  0  0  0  0  0  0  0  0  0  0  0
  198.9661  -22.5319   41.7020 O   0  0  0  0  0  0  0  0  0  0  0  0
  198.8695  -19.0105   42.8461 C   0  0  0  0  0  0  0  0  0  0  0  0
  200.3685  -18.7838   42.7624 C   0  0  0  0  0  0  0  0  0  0  0  0
  200.8613  -18.2143   41.5694 C   0  0  0  0  0  0  0  0  0  0  0  0
  202.2194  -17.9988   41.3819 C   0  0  0  0  0  0  0  0  0  0  0  0
  201.2732  -19.1112   43.8073 C   0  0  0  0  0  0  0  0  0  0  0  0
  202.6588  -18.8649   43.6065 C   0  0  0  0  0  0  0  0  0  0  0  0
  203.1118  -18.3269   42.3946 C   0  0  0  0  0  0  0  0  0  0  0  0
  200.8881  -19.6764   45.0447 C   0  0  0  0  0  0  0  0  0  0  0  0
  201.8234  -19.9683   46.0369 C   0  0  0  0  0  0  0  0  0  0  0  0
  203.1712  -19.7211   45.8213 C   0  0  0  0  0  0  0  0  0  0  0  0
  203.5862  -19.1723   44.6151 C   0  0  0  0  0  0  0  0  0  0  0  0
  200.0382  -21.3688   43.3464 N   0  0  0  0  0  0  0  0  0  0  0  0
  201.3742  -21.9864   43.3339 C   0  0  2  0  0  0  0  0  0  0  0  0
  202.3280  -21.6894   44.5161 C   0  0  0  0  0  0  0  0  0  0  0  0
  203.0803  -20.7161   44.4512 O   0  0  0  0  0  0  0  0  0  0  0  0
  202.1192  -21.8836   41.9906 C   0  0  0  0  0  0  0  0  0  0  0  0
  203.3761  -20.9960   42.0162 C   0  0  0  0  0  0  0  0  0  0  0  0
  203.6521  -20.2073   40.7274 C   0  0  0  0  0  0  0  0  0  0  0  0
  204.8769  -19.2853   40.8237 C   0  0  0  0  0  0  0  0  0  0  0  0
  205.2803  -18.8231   39.4797 N   0  0  0  0  0  4  0  0  0  0  0  0
  202.2555  -22.5190   45.6035 N   0  0  0  0  0  0  0  0  0  0  0  0
  202.3363  -22.0654   47.0034 C   0  0  2  0  0  0  0  0  0  0  0  0
  202.8905  -23.1658   47.9481 C   0  0  0  0  0  0  0  0  0  0  0  0
  202.4314  -24.3172   47.8864 O   0  0  0  0  0  0  0  0  0  0  0  0
  201.1226  -21.2225   47.4014 C   0  0  0  0  0  0  0  0  0  0  0  0
  200.4035  -21.4828   48.7234 C   0  0  0  0  0  0  0  0  0  0  0  0
  199.4467  -20.3180   48.8543 C   0  0  0  0  0  0  0  0  0  0  0  0
  199.9323  -19.1469   48.9008 O   0  0  0  0  0  1  0  0  0  0  0  0
  198.2126  -20.5338   48.6967 O   0  0  0  0  0  0  0  0  0  0  0  0
  204.0218  -22.9220   48.7130 N   0  0  0  0  0  0  0  0  0  0  0  0
  204.7306  -23.8188   49.6378 C   0  0  2  0  0  0  0  0  0  0  0  0
  204.0546  -24.0923   50.9917 C   0  0  0  0  0  0  0  0  0  0  0  0
  203.1287  -24.8851   51.1637 O   0  0  0  0  0  0  0  0  0  0  0  0
  206.0935  -23.1515   49.8800 C   0  0  0  0  0  0  0  0  0  0  0  0
  205.8617  -21.6951   49.4959 C   0  0  0  0  0  0  0  0  0  0  0  0
  204.8821  -21.8055   48.3449 C   0  0  0  0  0  0  0  0  0  0  0  0
  204.5488  -23.3553   52.0320 N   0  0  0  0  0  0  0  0  0  0  0  0
  1  2  2  0
  1  3  1  0
  1  4  1  0
  4  5  1  0
  4 10  1  0
  5  6  1  1
  5  8  1  0
  6  7  2  0
  6 11  1  0
  8  9  1  0
  9 10  1  0
 11 12  1  0
 12 13  1  1
 12 24  1  0
 13 14  1  0
 14 15  1  0
 14 19  2  0
 15 16  2  0
 15 17  1  0
 16 23  1  0
 17 18  1  0
 17 20  2  0
 18 19  1  0
 20 21  1  0
 21 22  1  0
 21 23  2  0
 24 25  2  0
 24 26  1  0
 26 27  1  0
 27 28  1  0
 27 30  1  1
 28 29  2  0
 28 37  1  0
 30 31  1  0
 31 32  1  0
 32 33  1  0
 33 34  1  0
 34 35  2  0
 34 36  1  0
 37 38  1  0
 38 39  1  0
 38 41  1  6
 39 40  2  0
 39 45  1  0
 41 42  1  0
 42 43  1  6
 42 44  1  0
 45 46  1  0
 46 47  1  0
 46 49  1  1
 47 48  2  0
 47 56  1  0
 49 50  1  0
 50 51  1  0
 51 52  1  0
 52 53  1  0
 53 54  2  0
 53 55  1  0
 56 57  1  0
 57 58  1  0
 57 60  1  6
 58 59  2  0
 58 65  1  0
 60 61  1  0
 61 62  1  0
 62 63  1  0
 63 64  1  0
 65 66  1  0
 66 67  1  6
 66 68  1  0
 70 67  1  6
 68 69  2  0
 68 74  1  0
 70 71  1  0
 70 72  1  0
 71 73  1  0
 72 73  1  0
 74 75  1  0
 74 80  1  0
 75 76  1  1
 75 78  1  0
 76 77  2  0
 76 82  1  0
 78 79  1  0
 79 80  1  0
 79 81  1  6
 82 83  1  0
 83 84  1  0
 83 86  1  6
 84 85  2  0
 84 90  1  0
 86 87  1  0
 87 88  1  0
 87 89  2  0
 90 91  1  0
 91 92  1  0
 91 94  1  6
 92 93  2  0
 92 96  1  0
 94 95  1  0
 96 97  1  0
 97 98  1  0
 97100  1  6
 98 99  2  0
 98107  1  0
100101  1  0
101102  2  0
101103  1  0
102104  1  0
103105  2  0
104106  2  0
105106  1  0
107108  1  0
108109  1  0
108111  1  1
109110  2  0
109122  1  0
111112  1  0
112113  2  0
112115  1  0
113114  1  0
114117  2  0
115116  2  0
115118  1  0
116117  1  0
116121  1  0
118119  2  0
119120  1  0
120121  2  0
122123  1  0
123124  1  0
123126  1  6
124125  2  0
124131  1  0
126127  1  0
127128  1  0
128129  1  0
129130  1  0
131132  1  0
132133  1  0
132135  1  1
133134  2  0
133140  1  0
135136  1  0
136137  1  0
137138  1  0
137139  2  0
140141  1  0
140146  1  0
141142  1  1
141144  1  0
142143  2  0
142147  1  0
144145  1  0
145146  1  0
M  CHG  6  35   1  54   1  64   1  88  -1 130   1 138  -1
M  END
$$$$
