
     RDKit          3D

147155  0  0  0  0  0  0  0  0999 V2000
  168.9087  -32.0722   15.3854 C   0  0  0  0  0  0  0  0  0  0  0  0
  170.1391  -32.0819   15.4721 O   0  0  0  0  0  0  0  0  0  0  0  0
  168.1420  -33.3526   15.1762 C   0  0  0  0  0  0  0  0  0  0  0  0
  168.1802  -30.9062   15.4799 N   0  0  0  0  0  0  0  0  0  0  0  0
  168.6628  -29.5886   15.9387 C   0  0  2  0  0  0  0  0  0  0  0  0
  168.8006  -29.5215   17.4737 C   0  0  0  0  0  0  0  0  0  0  0  0
  169.2183  -30.4594   18.1412 O   0  0  0  0  0  0  0  0  0  0  0  0
  167.5731  -28.6088   15.4952 C   0  0  0  0  0  0  0  0  0  0  0  0
  166.8543  -29.3354   14.3664 C   0  0  0  0  0  0  0  0  0  0  0  0
  166.8991  -30.7863   14.8079 C   0  0  0  0  0  0  0  0  0  0  0  0
  168.5157  -28.2962   18.0289 N   0  0  0  0  0  0  0  0  0  0  0  0
  169.2423  -27.7137   19.1700 C   0  0  1  0  0  0  0  0  0  0  0  0
  169.9815  -28.7852   20.0072 C   0  0  0  0  0  0  0  0  0  0  0  0
  170.6764  -28.2441   21.2287 C   0  0  0  0  0  0  0  0  0  0  0  0
  170.1208  -27.9724   22.5192 C   0  0  0  0  0  0  0  0  0  0  0  0
  168.8400  -28.1240   23.0912 C   0  0  0  0  0  0  0  0  0  0  0  0
  171.1440  -27.4596   23.3193 C   0  0  0  0  0  0  0  0  0  0  0  0
  172.2953  -27.4711   22.5649 N   0  0  0  0  0  0  0  0  0  0  0  0
  172.0218  -27.9402   21.3111 C   0  0  0  0  0  0  0  0  0  0  0  0
  170.9450  -27.0565   24.6466 C   0  0  0  0  0  0  0  0  0  0  0  0
  169.6628  -27.1959   25.1755 C   0  0  0  0  0  0  0  0  0  0  0  0
  169.3465  -26.6521   26.7754 Cl  0  0  0  0  0  0  0  0  0  0  0  0
  168.6238  -27.7297   24.4223 C   0  0  0  0  0  0  0  0  0  0  0  0
  170.1919  -26.5743   18.7321 C   0  0  0  0  0  0  0  0  0  0  0  0
  171.3826  -26.5310   19.0392 O   0  0  0  0  0  0  0  0  0  0  0  0
  169.5722  -25.5269   18.0865 N   0  0  0  0  0  0  0  0  0  0  0  0
  170.1621  -24.1889   18.0050 C   0  0  2  0  0  0  0  0  0  0  0  0
  171.5035  -24.1626   18.7837 C   0  0  0  0  0  0  0  0  0  0  0  0
  171.5923  -24.4633   19.9729 O   0  0  0  0  0  0  0  0  0  0  0  0
  169.1610  -23.1548   18.5712 C   0  0  0  0  0  0  0  0  0  0  0  0
  169.8343  -22.1431   19.5088 C   0  0  0  0  0  0  0  0  0  0  0  0
  170.0403  -22.6957   20.9171 C   0  0  0  0  0  0  0  0  0  0  0  0
  168.7814  -22.7866   21.6762 N   0  0  0  0  0  0  0  0  0  0  0  0
  167.7784  -21.9010   21.5786 C   0  0  0  0  0  0  0  0  0  0  0  0
  167.7769  -20.9381   20.6525 N   0  0  0  0  0  4  0  0  0  0  0  0
  166.7454  -21.9748   22.4220 N   0  0  0  0  0  0  0  0  0  0  0  0
  172.5813  -23.7088   18.0486 N   0  0  0  0  0  0  0  0  0  0  0  0
  173.8879  -23.4596   18.6542 C   0  0  2  0  0  0  0  0  0  0  0  0
  174.1794  -21.9352   18.6996 C   0  0  0  0  0  0  0  0  0  0  0  0
  174.9688  -21.4031   17.9193 O   0  0  0  0  0  0  0  0  0  0  0  0
  175.0018  -24.4158   18.1699 C   0  0  0  0  0  0  0  0  0  0  0  0
  174.7578  -25.9336   18.0810 C   0  0  1  0  0  0  0  0  0  0  0  0
  175.9486  -26.6711   17.4753 C   0  0  0  0  0  0  0  0  0  0  0  0
  174.3118  -26.6090   19.3780 C   0  0  0  0  0  0  0  0  0  0  0  0
  173.4615  -21.1850   19.6330 N   0  0  0  0  0  0  0  0  0  0  0  0
  173.7003  -19.7368   19.6535 C   0  0  2  0  0  0  0  0  0  0  0  0
  174.3405  -19.3900   21.0212 C   0  0  0  0  0  0  0  0  0  0  0  0
  175.2197  -20.0961   21.5242 O   0  0  0  0  0  0  0  0  0  0  0  0
  172.3930  -18.9567   19.4550 C   0  0  0  0  0  0  0  0  0  0  0  0
  172.5670  -17.5171   18.9540 C   0  0  0  0  0  0  0  0  0  0  0  0
  173.2793  -17.3987   17.6022 C   0  0  0  0  0  0  0  0  0  0  0  0
  172.5197  -18.0986   16.5460 N   0  0  0  0  0  0  0  0  0  0  0  0
  171.8382  -17.4919   15.5612 C   0  0  0  0  0  0  0  0  0  0  0  0
  170.5567  -17.7690   15.3153 N   0  0  0  0  0  4  0  0  0  0  0  0
  172.4517  -16.5818   14.7970 N   0  0  0  0  0  0  0  0  0  0  0  0
  173.8640  -18.2431   21.6277 N   0  0  0  0  0  0  0  0  0  0  0  0
  174.8541  -17.2897   22.1152 C   0  0  2  0  0  0  0  0  0  0  0  0
  174.5626  -15.8032   21.7835 C   0  0  0  0  0  0  0  0  0  0  0  0
  174.8871  -15.2672   20.7300 O   0  0  0  0  0  0  0  0  0  0  0  0
  176.2766  -17.6530   21.6575 C   0  0  0  0  0  0  0  0  0  0  0  0
  177.4021  -17.5959   22.7104 C   0  0  0  0  0  0  0  0  0  0  0  0
  177.2512  -18.5708   23.8845 C   0  0  0  0  0  0  0  0  0  0  0  0
  177.7572  -19.9758   23.5382 C   0  0  0  0  0  0  0  0  0  0  0  0
  177.5094  -20.9202   24.6327 N   0  0  0  0  0  4  0  0  0  0  0  0
  174.0297  -15.1022   22.8501 N   0  0  0  0  0  0  0  0  0  0  0  0
  173.6842  -13.6841   22.7829 C   0  0  1  0  0  0  0  0  0  0  0  0
  173.6349  -12.9981   24.1562 C   0  0  0  0  0  0  0  0  0  0  0  0
  174.6935  -13.0521   21.7968 C   0  0  0  0  0  0  0  0  0  0  0  0
  175.2536  -13.7158   20.9144 O   0  0  0  0  0  0  0  0  0  0  0  0
  172.7698  -13.6813   25.2218 C   0  0  1  0  0  0  0  0  0  0  0  0
  171.2665  -13.2894   25.1393 C   0  0  0  0  0  0  0  0  0  0  0  0
  172.3046  -15.1482   24.9997 C   0  0  0  0  0  0  0  0  0  0  0  0
  171.0197  -14.5910   24.3630 C   0  0  0  0  0  0  0  0  0  0  0  0
  174.8655  -11.6793   21.8349 N   0  0  0  0  0  0  0  0  0  0  0  0
  175.8983  -11.0684   20.9889 C   0  0  2  0  0  0  0  0  0  0  0  0
  177.3092  -11.3581   21.4990 C   0  0  0  0  0  0  0  0  0  0  0  0
  178.2576  -11.5142   20.7231 O   0  0  0  0  0  0  0  0  0  0  0  0
  175.6124   -9.5620   21.0153 C   0  0  0  0  0  0  0  0  0  0  0  0
  174.1245   -9.5044   21.2914 C   0  0  2  0  0  0  0  0  0  0  0  0
  173.9146  -10.6603   22.2789 C   0  0  0  0  0  0  0  0  0  0  0  0
  173.4167   -9.7910   20.0874 O   0  0  0  0  0  0  0  0  0  0  0  0
  177.4052  -11.3640   22.8629 N   0  0  0  0  0  0  0  0  0  0  0  0
  178.6385  -11.0816   23.6188 C   0  0  2  0  0  0  0  0  0  0  0  0
  179.0682  -12.3115   24.4575 C   0  0  0  0  0  0  0  0  0  0  0  0
  178.2957  -13.0613   25.0436 O   0  0  0  0  0  0  0  0  0  0  0  0
  178.3752   -9.8873   24.5117 C   0  0  0  0  0  0  0  0  0  0  0  0
  179.6244   -9.5334   25.3030 C   0  0  0  0  0  0  0  0  0  0  0  0
  180.5857  -10.3208   25.1121 O   0  0  0  0  0  1  0  0  0  0  0  0
  179.5018   -8.5537   26.0861 O   0  0  0  0  0  0  0  0  0  0  0  0
  180.4340  -12.5148   24.5341 N   0  0  0  0  0  0  0  0  0  0  0  0
  181.0544  -13.6442   23.8607 C   0  0  2  0  0  0  0  0  0  0  0  0
  182.4917  -13.2364   23.5040 C   0  0  0  0  0  0  0  0  0  0  0  0
  183.2909  -14.0133   22.9644 O   0  0  0  0  0  0  0  0  0  0  0  0
  180.2390  -14.1067   22.6479 C   0  0  0  0  0  0  0  0  0  0  0  0
  180.3464  -15.5115   22.4083 O   0  0  0  0  0  0  0  0  0  0  0  0
  182.8782  -11.9761   23.9105 N   0  0  0  0  0  0  0  0  0  0  0  0
  183.4902  -11.0584   22.9649 C   0  0  2  0  0  0  0  0  0  0  0  0
  183.7888   -9.7143   23.6257 C   0  0  0  0  0  0  0  0  0  0  0  0
  184.0990   -8.7347   22.9479 O   0  0  0  0  0  0  0  0  0  0  0  0
  182.6603  -10.8902   21.6767 C   0  0  0  0  0  0  0  0  0  0  0  0
  183.2802   -9.8886   20.7280 C   0  0  0  0  0  0  0  0  0  0  0  0
  184.4162   -9.1574   21.0943 C   0  0  0  0  0  0  0  0  0  0  0  0
  182.6952   -9.6476   19.4747 C   0  0  0  0  0  0  0  0  0  0  0  0
  184.9488   -8.2012   20.2345 C   0  0  0  0  0  0  0  0  0  0  0  0
  183.2270   -8.6844   18.6170 C   0  0  0  0  0  0  0  0  0  0  0  0
  184.3532   -7.9597   18.9973 C   0  0  0  0  0  0  0  0  0  0  0  0
  183.7186   -9.6617   24.9984 N   0  0  0  0  0  0  0  0  0  0  0  0
  184.9232   -9.9693   25.8102 C   0  0  2  0  0  0  0  0  0  0  0  0
  185.0487  -11.4566   26.2352 C   0  0  0  0  0  0  0  0  0  0  0  0
  185.7811  -12.2511   25.6517 O   0  0  0  0  0  0  0  0  0  0  0  0
  184.9421   -9.0511   27.0517 C   0  0  0  0  0  0  0  0  0  0  0  0
  185.5315   -7.6776   26.7844 C   0  0  0  0  0  0  0  0  0  0  0  0
  186.5965   -7.6096   25.8617 C   0  0  0  0  0  0  0  0  0  0  0  0
  187.2249   -6.4060   25.5749 C   0  0  0  0  0  0  0  0  0  0  0  0
  185.0680   -6.4880   27.4068 C   0  0  0  0  0  0  0  0  0  0  0  0
  185.7096   -5.2606   27.0862 C   0  0  0  0  0  0  0  0  0  0  0  0
  186.7850   -5.2397   26.1882 C   0  0  0  0  0  0  0  0  0  0  0  0
  184.0048   -6.4396   28.3375 C   0  0  0  0  0  0  0  0  0  0  0  0
  183.5886   -5.2378   28.9092 C   0  0  0  0  0  0  0  0  0  0  0  0
  184.2283   -4.0506   28.5838 C   0  0  0  0  0  0  0  0  0  0  0  0
  185.2807   -4.0615   27.6778 C   0  0  0  0  0  0  0  0  0  0  0  0
  184.3443  -11.7993   27.3657 N   0  0  0  0  0  0  0  0  0  0  0  0
  184.9141  -11.8178   28.7227 C   0  0  2  0  0  0  0  0  0  0  0  0
  185.4465  -13.1627   29.2737 C   0  0  0  0  0  0  0  0  0  0  0  0
  185.9544  -13.9717   28.4960 O   0  0  0  0  0  0  0  0  0  0  0  0
  184.0737  -11.0857   29.7847 C   0  0  0  0  0  0  0  0  0  0  0  0
  182.8584  -10.3210   29.2311 C   0  0  0  0  0  0  0  0  0  0  0  0
  182.0496   -9.5288   30.2692 C   0  0  0  0  0  0  0  0  0  0  0  0
  181.7855  -10.3093   31.5656 C   0  0  0  0  0  0  0  0  0  0  0  0
  181.6037   -9.3787   32.6987 N   0  0  0  0  0  4  0  0  0  0  0  0
  185.3546  -13.3667   30.6250 N   0  0  0  0  0  0  0  0  0  0  0  0
  186.4803  -13.2288   31.5661 C   0  0  2  0  0  0  0  0  0  0  0  0
  186.5722  -14.4234   32.5536 C   0  0  0  0  0  0  0  0  0  0  0  0
  185.8722  -14.4290   33.5784 O   0  0  0  0  0  0  0  0  0  0  0  0
  186.6427  -11.7877   32.0548 C   0  0  0  0  0  0  0  0  0  0  0  0
  186.2665  -10.6188   31.1467 C   0  0  0  0  0  0  0  0  0  0  0  0
  186.3040   -9.4165   32.0645 C   0  0  0  0  0  0  0  0  0  0  0  0
  187.4371   -8.9655   32.4139 O   0  0  0  0  0  1  0  0  0  0  0  0
  185.2305   -8.7845   32.2708 O   0  0  0  0  0  0  0  0  0  0  0  0
  187.2752  -15.5660   32.2008 N   0  0  0  0  0  0  0  0  0  0  0  0
  187.6306  -16.7312   33.0243 C   0  0  2  0  0  0  0  0  0  0  0  0
  188.7567  -16.5345   34.0529 C   0  0  0  0  0  0  0  0  0  0  0  0
  189.0819  -17.3650   34.9014 O   0  0  0  0  0  0  0  0  0  0  0  0
  188.0465  -17.8200   32.0228 C   0  0  0  0  0  0  0  0  0  0  0  0
  188.3898  -17.0424   30.7580 C   0  0  0  0  0  0  0  0  0  0  0  0
  187.3940  -15.9004   30.7878 C   0  0  0  0  0  0  0  0  0  0  0  0
  189.3863  -15.3228   33.9804 N   0  0  0  0  0  0  0  0  0  0  0  0
  1  2  2  0
  1  3  1  0
  1  4  1  0
  4  5  1  0
  4 10  1  0
  5  6  1  1
  5  8  1  0
  6  7  2  0
  6 11  1  0
  8  9  1  0
  9 10  1  0
 11 12  1  0
 12 13  1  6
 12 24  1  0
 13 14  1  0
 14 15  1  0
 14 19  2  0
 15 16  2  0
 15 17  1  0
 16 23  1  0
 17 18  1  0
 17 20  2  0
 18 19  1  0
 20 21  1  0
 21 22  1  0
 21 23  2  0
 24 25  2  0
 24 26  1  0
 26 27  1  0
 27 28  1  0
 27 30  1  1
 28 29  2  0
 28 37  1  0
 30 31  1  0
 31 32  1  0
 32 33  1  0
 33 34  1  0
 34 35  2  0
 34 36  1  0
 37 38  1  0
 38 39  1  0
 38 41  1  6
 39 40  2  0
 39 45  1  0
 41 42  1  0
 42 43  1  1
 42 44  1  0
 45 46  1  0
 46 47  1  0
 46 49  1  1
 47 48  2  0
 47 56  1  0
 49 50  1  0
 50 51  1  0
 51 52  1  0
 52 53  1  0
 53 54  2  0
 53 55  1  0
 56 57  1  0
 57 58  1  0
 57 60  1  6
 58 59  2  0
 58 65  1  0
 60 61  1  0
 61 62  1  0
 62 63  1  0
 63 64  1  0
 65 66  1  0
 66 67  1  1
 66 68  1  0
 70 67  1  6
 68 69  2  0
 68 74  1  0
 70 71  1  0
 70 72  1  0
 71 73  1  0
 72 73  1  0
 74 75  1  0
 74 80  1  0
 75 76  1  1
 75 78  1  0
 76 77  2  0
 76 82  1  0
 78 79  1  0
 79 80  1  0
 79 81  1  6
 82 83  1  0
 83 84  1  0
 83 86  1  1
 84 85  2  0
 84 90  1  0
 86 87  1  0
 87 88  1  0
 87 89  2  0
 90 91  1  0
 91 92  1  0
 91 94  1  6
 92 93  2  0
 92 96  1  0
 94 95  1  0
 96 97  1  0
 97 98  1  0
 97100  1  6
 98 99  2  0
 98107  1  0
100101  1  0
101102  2  0
101103  1  0
102104  1  0
103105  2  0
104106  2  0
105106  1  0
107108  1  0
108109  1  0
108111  1  1
109110  2  0
109122  1  0
111112  1  0
112113  2  0
112115  1  0
113114  1  0
114117  2  0
115116  2  0
115118  1  0
116117  1  0
116121  1  0
118119  2  0
119120  1  0
120121  2  0
122123  1  0
123124  1  0
123126  1  1
124125  2  0
124131  1  0
126127  1  0
127128  1  0
128129  1  0
129130  1  0
131132  1  0
132133  1  0
132135  1  1
133134  2  0
133140  1  0
135136  1  0
136137  1  0
137138  1  0
137139  2  0
140141  1  0
140146  1  0
141142  1  1
141144  1  0
142143  2  0
142147  1  0
144145  1  0
145146  1  0
M  CHG  6  35   1  54   1  64   1  88  -1 130   1 138  -1
M  END
$$$$
