
     RDKit          3D

147155  0  0  0  0  0  0  0  0999 V2000
  189.6502   -8.7369   52.0112 C   0  0  0  0  0  0  0  0  0  0  0  0
  190.8737   -8.6185   52.1140 O   0  0  0  0  0  0  0  0  0  0  0  0
  188.7226   -7.7892   52.7272 C   0  0  0  0  0  0  0  0  0  0  0  0
  189.0753   -9.7252   51.2418 N   0  0  0  0  0  0  0  0  0  0  0  0
  189.4123  -10.0794   49.8489 C   0  0  2  0  0  0  0  0  0  0  0  0
  188.8276   -9.0745   48.8350 C   0  0  0  0  0  0  0  0  0  0  0  0
  187.9833   -8.2421   49.1416 O   0  0  0  0  0  0  0  0  0  0  0  0
  188.7513  -11.4434   49.6327 C   0  0  0  0  0  0  0  0  0  0  0  0
  188.5732  -11.9994   51.0391 C   0  0  0  0  0  0  0  0  0  0  0  0
  188.2703  -10.7615   51.8624 C   0  0  0  0  0  0  0  0  0  0  0  0
  189.3974   -9.1141   47.5841 N   0  0  0  0  0  0  0  0  0  0  0  0
  188.9100   -8.3454   46.4262 C   0  0  1  0  0  0  0  0  0  0  0  0
  187.3701   -8.4069   46.2838 C   0  0  0  0  0  0  0  0  0  0  0  0
  186.8542   -9.6963   45.7017 C   0  0  0  0  0  0  0  0  0  0  0  0
  186.2560  -10.8025   46.3849 C   0  0  0  0  0  0  0  0  0  0  0  0
  185.9254  -11.0659   47.7309 C   0  0  0  0  0  0  0  0  0  0  0  0
  185.9606  -11.7778   45.4301 C   0  0  0  0  0  0  0  0  0  0  0  0
  186.3116  -11.2649   44.2019 N   0  0  0  0  0  0  0  0  0  0  0  0
  186.8475  -10.0177   44.3579 C   0  0  0  0  0  0  0  0  0  0  0  0
  185.3878  -13.0147   45.7554 C   0  0  0  0  0  0  0  0  0  0  0  0
  185.0952  -13.2548   47.0970 C   0  0  0  0  0  0  0  0  0  0  0  0
  184.4567  -14.7822   47.5609 Cl  0  0  0  0  0  0  0  0  0  0  0  0
  185.3458  -12.2989   48.0742 C   0  0  0  0  0  0  0  0  0  0  0  0
  189.4256   -6.8874   46.4395 C   0  0  0  0  0  0  0  0  0  0  0  0
  189.3363   -6.1299   45.4740 O   0  0  0  0  0  0  0  0  0  0  0  0
  190.1272   -6.5371   47.5722 N   0  0  0  0  0  0  0  0  0  0  0  0
  190.7094   -5.2066   47.7611 C   0  0  2  0  0  0  0  0  0  0  0  0
  192.2519   -5.2876   47.6168 C   0  0  0  0  0  0  0  0  0  0  0  0
  192.9415   -4.3324   47.2640 O   0  0  0  0  0  0  0  0  0  0  0  0
  190.3007   -4.6636   49.1503 C   0  0  0  0  0  0  0  0  0  0  0  0
  190.9076   -3.2838   49.4397 C   0  0  0  0  0  0  0  0  0  0  0  0
  190.5237   -2.7518   50.8183 C   0  0  0  0  0  0  0  0  0  0  0  0
  191.4115   -1.6670   51.2706 N   0  0  0  0  0  0  0  0  0  0  0  0
  192.2107   -1.7475   52.3451 C   0  0  0  0  0  0  0  0  0  0  0  0
  192.3587   -0.7241   53.1909 N   0  0  0  0  0  4  0  0  0  0  0  0
  192.8800   -2.8774   52.5892 N   0  0  0  0  0  0  0  0  0  0  0  0
  192.7821   -6.5411   47.8526 N   0  0  0  0  0  0  0  0  0  0  0  0
  194.2211   -6.7953   47.8301 C   0  0  2  0  0  0  0  0  0  0  0  0
  194.4979   -8.3173   47.6968 C   0  0  0  0  0  0  0  0  0  0  0  0
  193.6514   -9.1585   47.9979 O   0  0  0  0  0  0  0  0  0  0  0  0
  195.0231   -5.9818   48.8714 C   0  0  0  0  0  0  0  0  0  0  0  0
  196.0838   -4.9571   48.4282 C   0  0  1  0  0  0  0  0  0  0  0  0
  196.3100   -4.9827   46.9192 C   0  0  0  0  0  0  0  0  0  0  0  0
  195.8627   -3.5244   48.9132 C   0  0  0  0  0  0  0  0  0  0  0  0
  195.7354   -8.6875   47.1663 N   0  0  0  0  0  0  0  0  0  0  0  0
  196.3100   -9.9558   47.6310 C   0  0  2  0  0  0  0  0  0  0  0  0
  195.5586  -11.1005   46.9059 C   0  0  0  0  0  0  0  0  0  0  0  0
  196.1503  -11.9149   46.1909 O   0  0  0  0  0  0  0  0  0  0  0  0
  196.1758  -10.1001   49.1535 C   0  0  0  0  0  0  0  0  0  0  0  0
  197.4322   -9.7306   49.9527 C   0  0  0  0  0  0  0  0  0  0  0  0
  198.3990   -8.7965   49.2169 C   0  0  0  0  0  0  0  0  0  0  0  0
  198.9832   -7.8083   50.1467 N   0  0  0  0  0  0  0  0  0  0  0  0
  200.0545   -7.0443   49.8803 C   0  0  0  0  0  0  0  0  0  0  0  0
  200.5712   -6.9564   48.6535 N   0  0  0  0  0  4  0  0  0  0  0  0
  200.6297   -6.3469   50.8658 N   0  0  0  0  0  0  0  0  0  0  0  0
  194.1937  -11.1452   47.1192 N   0  0  0  0  0  0  0  0  0  0  0  0
  193.4189  -12.0453   46.2729 C   0  0  2  0  0  0  0  0  0  0  0  0
  194.2048  -12.7000   45.1074 C   0  0  0  0  0  0  0  0  0  0  0  0
  193.7207  -12.9227   44.0036 O   0  0  0  0  0  0  0  0  0  0  0  0
  192.1493  -11.3710   45.7268 C   0  0  0  0  0  0  0  0  0  0  0  0
  191.4160  -10.3759   46.6492 C   0  0  0  0  0  0  0  0  0  0  0  0
  190.3046   -9.5585   45.9797 C   0  0  0  0  0  0  0  0  0  0  0  0
  190.3266   -9.6944   44.4529 C   0  0  0  0  0  0  0  0  0  0  0  0
  191.0078   -8.5584   43.8228 N   0  0  0  0  0  4  0  0  0  0  0  0
  195.4620  -13.1411   45.4791 N   0  0  0  0  0  0  0  0  0  0  0  0
  195.6889  -14.3829   46.2148 C   0  0  1  0  0  0  0  0  0  0  0  0
  194.6196  -14.6706   47.2791 C   0  0  0  0  0  0  0  0  0  0  0  0
  195.8259  -15.4878   45.1419 C   0  0  0  0  0  0  0  0  0  0  0  0
  196.5430  -16.4828   45.3112 O   0  0  0  0  0  0  0  0  0  0  0  0
  194.6575  -13.7864   48.5310 C   0  0  1  0  0  0  0  0  0  0  0  0
  194.7200  -14.5979   49.8569 C   0  0  0  0  0  0  0  0  0  0  0  0
  196.0038  -13.1434   48.9689 C   0  0  0  0  0  0  0  0  0  0  0  0
  196.2383  -14.3687   49.8691 C   0  0  0  0  0  0  0  0  0  0  0  0
  195.0172  -15.4085   44.0215 N   0  0  0  0  0  0  0  0  0  0  0  0
  193.7133  -16.0833   44.0367 C   0  0  2  0  0  0  0  0  0  0  0  0
  193.8480  -17.6030   43.9530 C   0  0  0  0  0  0  0  0  0  0  0  0
  194.4029  -18.2529   44.8450 O   0  0  0  0  0  0  0  0  0  0  0  0
  192.9557  -15.5397   42.8193 C   0  0  0  0  0  0  0  0  0  0  0  0
  193.5771  -14.1738   42.6158 C   0  0  2  0  0  0  0  0  0  0  0  0
  195.0558  -14.4179   42.9460 C   0  0  0  0  0  0  0  0  0  0  0  0
  193.0332  -13.2681   43.5732 O   0  0  0  0  0  0  0  0  0  0  0  0
  193.2523  -18.1430   42.8470 N   0  0  0  0  0  0  0  0  0  0  0  0
  192.0147  -18.9432   42.8665 C   0  0  2  0  0  0  0  0  0  0  0  0
  192.3320  -20.4566   42.7673 C   0  0  0  0  0  0  0  0  0  0  0  0
  192.7941  -21.1342   43.6782 O   0  0  0  0  0  0  0  0  0  0  0  0
  191.1526  -18.4972   41.7044 C   0  0  0  0  0  0  0  0  0  0  0  0
  189.8067  -19.2036   41.7431 C   0  0  0  0  0  0  0  0  0  0  0  0
  189.6836  -20.0080   42.7013 O   0  0  0  0  0  1  0  0  0  0  0  0
  189.0374  -18.9418   40.7800 O   0  0  0  0  0  0  0  0  0  0  0  0
  192.0776  -21.0243   41.5322 N   0  0  0  0  0  0  0  0  0  0  0  0
  193.0167  -21.9632   40.9402 C   0  0  2  0  0  0  0  0  0  0  0  0
  194.3304  -21.2072   40.6910 C   0  0  0  0  0  0  0  0  0  0  0  0
  194.4492  -20.3510   39.8043 O   0  0  0  0  0  0  0  0  0  0  0  0
  192.4496  -22.6214   39.6774 C   0  0  0  0  0  0  0  0  0  0  0  0
  192.8836  -23.9730   39.5117 O   0  0  0  0  0  0  0  0  0  0  0  0
  195.4090  -21.6079   41.4519 N   0  0  0  0  0  0  0  0  0  0  0  0
  196.7435  -21.1250   41.1402 C   0  0  2  0  0  0  0  0  0  0  0  0
  196.9452  -19.7052   41.6652 C   0  0  0  0  0  0  0  0  0  0  0  0
  197.1015  -18.7630   40.8885 O   0  0  0  0  0  0  0  0  0  0  0  0
  197.0799  -21.2328   39.6397 C   0  0  0  0  0  0  0  0  0  0  0  0
  198.5314  -20.9143   39.3584 C   0  0  0  0  0  0  0  0  0  0  0  0
  199.2770  -21.6865   38.4599 C   0  0  0  0  0  0  0  0  0  0  0  0
  199.1657  -19.8578   40.0311 C   0  0  0  0  0  0  0  0  0  0  0  0
  200.6257  -21.4170   38.2465 C   0  0  0  0  0  0  0  0  0  0  0  0
  200.5190  -19.5933   39.8203 C   0  0  0  0  0  0  0  0  0  0  0  0
  201.2500  -20.3739   38.9290 C   0  0  0  0  0  0  0  0  0  0  0  0
  196.9677  -19.5392   43.0305 N   0  0  0  0  0  0  0  0  0  0  0  0
  198.1532  -19.9822   43.8071 C   0  0  2  0  0  0  0  0  0  0  0  0
  199.4296  -20.2129   42.9550 C   0  0  0  0  0  0  0  0  0  0  0  0
  199.5601  -21.1794   42.2087 O   0  0  0  0  0  0  0  0  0  0  0  0
  197.7916  -21.2618   44.5925 C   0  0  0  0  0  0  0  0  0  0  0  0
  197.8795  -21.0967   46.0993 C   0  0  0  0  0  0  0  0  0  0  0  0
  196.8009  -21.5962   46.8592 C   0  0  0  0  0  0  0  0  0  0  0  0
  196.7709  -21.4639   48.2403 C   0  0  0  0  0  0  0  0  0  0  0  0
  198.9735  -20.4775   46.7604 C   0  0  0  0  0  0  0  0  0  0  0  0
  198.9360  -20.3684   48.1772 C   0  0  0  0  0  0  0  0  0  0  0  0
  197.8317  -20.8491   48.8933 C   0  0  0  0  0  0  0  0  0  0  0  0
  200.1073  -19.9511   46.0997 C   0  0  0  0  0  0  0  0  0  0  0  0
  201.1556  -19.3616   46.8053 C   0  0  0  0  0  0  0  0  0  0  0  0
  201.0998  -19.2641   48.1879 C   0  0  0  0  0  0  0  0  0  0  0  0
  199.9983  -19.7649   48.8695 C   0  0  0  0  0  0  0  0  0  0  0  0
  200.3689  -19.2113   43.0326 N   0  0  0  0  0  0  0  0  0  0  0  0
  201.5714  -19.1363   42.1870 C   0  0  2  0  0  0  0  0  0  0  0  0
  202.9182  -19.6061   42.7880 C   0  0  0  0  0  0  0  0  0  0  0  0
  203.9150  -19.6522   42.0658 O   0  0  0  0  0  0  0  0  0  0  0  0
  201.7443  -17.8077   41.4288 C   0  0  0  0  0  0  0  0  0  0  0  0
  200.7050  -17.5563   40.3220 C   0  0  0  0  0  0  0  0  0  0  0  0
  200.6371  -16.1144   39.7971 C   0  0  0  0  0  0  0  0  0  0  0  0
  200.4414  -15.0679   40.9044 C   0  0  0  0  0  0  0  0  0  0  0  0
  199.7618  -13.8710   40.3671 N   0  0  0  0  0  4  0  0  0  0  0  0
  202.9351  -19.9152   44.1223 N   0  0  0  0  0  0  0  0  0  0  0  0
  202.4305  -21.1779   44.6906 C   0  0  2  0  0  0  0  0  0  0  0  0
  203.2747  -22.4028   44.2461 C   0  0  0  0  0  0  0  0  0  0  0  0
  202.9502  -23.5410   44.6195 O   0  0  0  0  0  0  0  0  0  0  0  0
  200.9012  -21.2328   44.6914 C   0  0  0  0  0  0  0  0  0  0  0  0
  200.1617  -22.1056   45.7032 C   0  0  0  0  0  0  0  0  0  0  0  0
  199.7423  -23.3186   44.9018 C   0  0  0  0  0  0  0  0  0  0  0  0
  200.6255  -23.9165   44.2149 O   0  0  0  0  0  1  0  0  0  0  0  0
  198.5992  -23.8118   45.1123 O   0  0  0  0  0  0  0  0  0  0  0  0
  204.2606  -22.2559   43.2814 N   0  0  0  0  0  0  0  0  0  0  0  0
  205.3403  -21.2611   43.1985 C   0  0  2  0  0  0  0  0  0  0  0  0
  204.9371  -19.8338   42.7923 C   0  0  0  0  0  0  0  0  0  0  0  0
  205.2464  -18.8164   43.4125 O   0  0  0  0  0  0  0  0  0  0  0  0
  206.3252  -21.8220   42.1608 C   0  0  0  0  0  0  0  0  0  0  0  0
  205.4907  -22.8179   41.3646 C   0  0  0  0  0  0  0  0  0  0  0  0
  204.5598  -23.3885   42.4154 C   0  0  0  0  0  0  0  0  0  0  0  0
  204.1637  -19.7611   41.6670 N   0  0  0  0  0  0  0  0  0  0  0  0
  1  2  2  0
  1  3  1  0
  1  4  1  0
  4  5  1  0
  4 10  1  0
  5  6  1  6
  5  8  1  0
  6  7  2  0
  6 11  1  0
  8  9  1  0
  9 10  1  0
 11 12  1  0
 12 13  1  1
 12 24  1  0
 13 14  1  0
 14 15  1  0
 14 19  2  0
 15 16  2  0
 15 17  1  0
 16 23  1  0
 17 18  1  0
 17 20  2  0
 18 19  1  0
 20 21  1  0
 21 22  1  0
 21 23  2  0
 24 25  2  0
 24 26  1  0
 26 27  1  0
 27 28  1  0
 27 30  1  1
 28 29  2  0
 28 37  1  0
 30 31  1  0
 31 32  1  0
 32 33  1  0
 33 34  1  0
 34 35  2  0
 34 36  1  0
 37 38  1  0
 38 39  1  0
 38 41  1  1
 39 40  2  0
 39 45  1  0
 41 42  1  0
 42 43  1  6
 42 44  1  0
 45 46  1  0
 46 47  1  0
 46 49  1  1
 47 48  2  0
 47 56  1  0
 49 50  1  0
 50 51  1  0
 51 52  1  0
 52 53  1  0
 53 54  2  0
 53 55  1  0
 56 57  1  0
 57 58  1  0
 57 60  1  6
 58 59  2  0
 58 65  1  0
 60 61  1  0
 61 62  1  0
 62 63  1  0
 63 64  1  0
 65 66  1  0
 66 67  1  1
 66 68  1  0
 70 67  1  6
 68 69  2  0
 68 74  1  0
 70 71  1  0
 70 72  1  0
 71 73  1  0
 72 73  1  0
 74 75  1  0
 74 80  1  0
 75 76  1  6
 75 78  1  0
 76 77  2  0
 76 82  1  0
 78 79  1  0
 79 80  1  0
 79 81  1  1
 82 83  1  0
 83 84  1  0
 83 86  1  6
 84 85  2  0
 84 90  1  0
 86 87  1  0
 87 88  1  0
 87 89  2  0
 90 91  1  0
 91 92  1  0
 91 94  1  6
 92 93  2  0
 92 96  1  0
 94 95  1  0
 96 97  1  0
 97 98  1  0
 97100  1  6
 98 99  2  0
 98107  1  0
100101  1  0
101102  2  0
101103  1  0
102104  1  0
103105  2  0
104106  2  0
105106  1  0
107108  1  0
108109  1  0
108111  1  6
109110  2  0
109122  1  0
111112  1  0
112113  2  0
112115  1  0
113114  1  0
114117  2  0
115116  2  0
115118  1  0
116117  1  0
116121  1  0
118119  2  0
119120  1  0
120121  2  0
122123  1  0
123124  1  0
123126  1  1
124125  2  0
124131  1  0
126127  1  0
127128  1  0
128129  1  0
129130  1  0
131132  1  0
132133  1  0
132135  1  6
133134  2  0
133140  1  0
135136  1  0
136137  1  0
137138  1  0
137139  2  0
140141  1  0
140146  1  0
141142  1  6
141144  1  0
142143  2  0
142147  1  0
144145  1  0
145146  1  0
M  CHG  6  35   1  54   1  64   1  88  -1 130   1 138  -1
M  END
$$$$
