
     RDKit          3D

147155  0  0  0  0  0  0  0  0999 V2000
  164.9639  -26.2590    4.5621 C   0  0  0  0  0  0  0  0  0  0  0  0
  164.2979  -25.5655    5.3347 O   0  0  0  0  0  0  0  0  0  0  0  0
  164.2906  -27.2131    3.6095 C   0  0  0  0  0  0  0  0  0  0  0  0
  166.3401  -26.1941    4.5262 N   0  0  0  0  0  0  0  0  0  0  0  0
  167.2169  -25.3832    5.3939 C   0  0  2  0  0  0  0  0  0  0  0  0
  167.2253  -23.8956    4.9857 C   0  0  0  0  0  0  0  0  0  0  0  0
  166.9986  -23.5233    3.8413 O   0  0  0  0  0  0  0  0  0  0  0  0
  168.6153  -25.9663    5.1728 C   0  0  0  0  0  0  0  0  0  0  0  0
  168.3553  -27.3725    4.6497 C   0  0  0  0  0  0  0  0  0  0  0  0
  167.1025  -27.2013    3.8111 C   0  0  0  0  0  0  0  0  0  0  0  0
  167.4064  -23.0104    6.0222 N   0  0  0  0  0  0  0  0  0  0  0  0
  167.0507  -21.5823    5.9647 C   0  0  1  0  0  0  0  0  0  0  0  0
  166.2761  -21.1166    7.2211 C   0  0  0  0  0  0  0  0  0  0  0  0
  165.4853  -19.8501    7.0254 C   0  0  0  0  0  0  0  0  0  0  0  0
  165.8526  -18.5112    7.3725 C   0  0  0  0  0  0  0  0  0  0  0  0
  166.9992  -17.9224    7.9461 C   0  0  0  0  0  0  0  0  0  0  0  0
  164.7889  -17.6777    7.0208 C   0  0  0  0  0  0  0  0  0  0  0  0
  163.8306  -18.4683    6.4282 N   0  0  0  0  0  0  0  0  0  0  0  0
  164.2421  -19.7713    6.4279 C   0  0  0  0  0  0  0  0  0  0  0  0
  164.7968  -16.2946    7.2467 C   0  0  0  0  0  0  0  0  0  0  0  0
  165.9341  -15.7462    7.8374 C   0  0  0  0  0  0  0  0  0  0  0  0
  165.9689  -14.0662    8.2012 Cl  0  0  0  0  0  0  0  0  0  0  0  0
  167.0263  -16.5364    8.1750 C   0  0  0  0  0  0  0  0  0  0  0  0
  168.2823  -20.6886    5.6880 C   0  0  0  0  0  0  0  0  0  0  0  0
  168.2158  -19.6076    5.1042 O   0  0  0  0  0  0  0  0  0  0  0  0
  169.4917  -21.2599    6.0184 N   0  0  0  0  0  0  0  0  0  0  0  0
  170.0169  -21.2629    7.3855 C   0  0  2  0  0  0  0  0  0  0  0  0
  171.5309  -21.6001    7.3611 C   0  0  0  0  0  0  0  0  0  0  0  0
  171.9913  -22.5653    6.7535 O   0  0  0  0  0  0  0  0  0  0  0  0
  169.2250  -22.2852    8.2338 C   0  0  0  0  0  0  0  0  0  0  0  0
  169.9043  -22.5790    9.5785 C   0  0  0  0  0  0  0  0  0  0  0  0
  170.7593  -21.4137   10.0705 C   0  0  0  0  0  0  0  0  0  0  0  0
  170.0231  -20.1381   10.0763 N   0  0  0  0  0  0  0  0  0  0  0  0
  169.7055  -19.4578   11.1882 C   0  0  0  0  0  0  0  0  0  0  0  0
  169.0299  -20.0248   12.1917 N   0  0  0  0  0  4  0  0  0  0  0  0
  170.0716  -18.1791   11.3094 N   0  0  0  0  0  0  0  0  0  0  0  0
  172.3142  -20.7652    8.1340 N   0  0  0  0  0  0  0  0  0  0  0  0
  173.1669  -19.7332    7.5477 C   0  0  2  0  0  0  0  0  0  0  0  0
  173.9706  -19.0030    8.6574 C   0  0  0  0  0  0  0  0  0  0  0  0
  173.5987  -17.9268    9.1250 O   0  0  0  0  0  0  0  0  0  0  0  0
  172.4759  -18.8895    6.4522 C   0  0  0  0  0  0  0  0  0  0  0  0
  172.6802  -19.2105    4.9600 C   0  0  1  0  0  0  0  0  0  0  0  0
  172.4007  -18.0025    4.0704 C   0  0  0  0  0  0  0  0  0  0  0  0
  174.0233  -19.8443    4.5976 C   0  0  0  0  0  0  0  0  0  0  0  0
  175.1085  -19.6521    9.1406 N   0  0  0  0  0  0  0  0  0  0  0  0
  175.7472  -19.0834   10.3337 C   0  0  2  0  0  0  0  0  0  0  0  0
  175.6633  -17.5408   10.2158 C   0  0  0  0  0  0  0  0  0  0  0  0
  175.0092  -16.9923    9.3237 O   0  0  0  0  0  0  0  0  0  0  0  0
  177.2089  -19.5382   10.4497 C   0  0  0  0  0  0  0  0  0  0  0  0
  177.7340  -20.3432    9.2539 C   0  0  0  0  0  0  0  0  0  0  0  0
  177.7548  -21.8601    9.4715 C   0  0  0  0  0  0  0  0  0  0  0  0
  178.2334  -22.5573    8.2602 N   0  0  0  0  0  0  0  0  0  0  0  0
  178.4341  -23.8813    8.1661 C   0  0  0  0  0  0  0  0  0  0  0  0
  179.3969  -24.4997    8.8518 N   0  0  0  0  0  4  0  0  0  0  0  0
  177.6527  -24.6123    7.3639 N   0  0  0  0  0  0  0  0  0  0  0  0
  176.3626  -16.8318   11.1744 N   0  0  0  0  0  0  0  0  0  0  0  0
  175.8754  -15.4960   11.4988 C   0  0  2  0  0  0  0  0  0  0  0  0
  174.9576  -14.8475   10.4302 C   0  0  0  0  0  0  0  0  0  0  0  0
  174.2850  -15.4913    9.6329 O   0  0  0  0  0  0  0  0  0  0  0  0
  177.0233  -14.5341   11.8480 C   0  0  0  0  0  0  0  0  0  0  0  0
  178.4628  -15.0821   11.7707 C   0  0  0  0  0  0  0  0  0  0  0  0
  179.1357  -14.9651   10.3977 C   0  0  0  0  0  0  0  0  0  0  0  0
  180.5044  -15.6548   10.3639 C   0  0  0  0  0  0  0  0  0  0  0  0
  180.8685  -16.0580    9.0015 N   0  0  0  0  0  4  0  0  0  0  0  0
  175.0827  -13.4714   10.3685 N   0  0  0  0  0  0  0  0  0  0  0  0
  174.0763  -12.5523   10.8950 C   0  0  1  0  0  0  0  0  0  0  0  0
  173.1634  -13.1835   11.9566 C   0  0  0  0  0  0  0  0  0  0  0  0
  174.8570  -11.3126   11.3892 C   0  0  0  0  0  0  0  0  0  0  0  0
  175.7135  -11.3876   12.2800 O   0  0  0  0  0  0  0  0  0  0  0  0
  171.6658  -13.2114   11.6296 C   0  0  1  0  0  0  0  0  0  0  0  0
  171.3690  -13.4338   10.1187 C   0  0  0  0  0  0  0  0  0  0  0  0
  170.8543  -14.5127   11.8860 C   0  0  0  0  0  0  0  0  0  0  0  0
  171.1445  -14.9203   10.4312 C   0  0  0  0  0  0  0  0  0  0  0  0
  174.6712  -10.1176   10.7160 N   0  0  0  0  0  0  0  0  0  0  0  0
  175.0342   -8.8615   11.3840 C   0  0  2  0  0  0  0  0  0  0  0  0
  174.0573   -8.4976   12.5011 C   0  0  0  0  0  0  0  0  0  0  0  0
  172.9113   -8.9574   12.5328 O   0  0  0  0  0  0  0  0  0  0  0  0
  175.0203   -7.7930   10.2841 C   0  0  0  0  0  0  0  0  0  0  0  0
  175.3116   -8.5925    9.0314 C   0  0  2  0  0  0  0  0  0  0  0  0
  174.5472   -9.9008    9.2748 C   0  0  0  0  0  0  0  0  0  0  0  0
  176.7077   -8.8765    8.9752 O   0  0  0  0  0  0  0  0  0  0  0  0
  174.5999   -7.6829   13.4557 N   0  0  0  0  0  0  0  0  0  0  0  0
  174.0330   -6.3889   13.8758 C   0  0  2  0  0  0  0  0  0  0  0  0
  172.5247   -6.5250   14.2034 C   0  0  0  0  0  0  0  0  0  0  0  0
  171.6456   -6.7278   13.3737 O   0  0  0  0  0  0  0  0  0  0  0  0
  174.2520   -5.3970   12.7529 C   0  0  0  0  0  0  0  0  0  0  0  0
  173.9141   -3.9893   13.2176 C   0  0  0  0  0  0  0  0  0  0  0  0
  173.4656   -3.9365   14.3908 O   0  0  0  0  0  1  0  0  0  0  0  0
  174.0607   -3.0893   12.3478 O   0  0  0  0  0  0  0  0  0  0  0  0
  172.2041   -6.3746   15.5403 N   0  0  0  0  0  0  0  0  0  0  0  0
  172.1825   -7.5234   16.4313 C   0  0  2  0  0  0  0  0  0  0  0  0
  171.8018   -7.0157   17.8301 C   0  0  0  0  0  0  0  0  0  0  0  0
  170.7257   -6.4493   18.0640 O   0  0  0  0  0  0  0  0  0  0  0  0
  173.5086   -8.2918   16.4078 C   0  0  0  0  0  0  0  0  0  0  0  0
  173.5469   -9.3045   15.4001 O   0  0  0  0  0  0  0  0  0  0  0  0
  172.7747   -7.1385   18.8003 N   0  0  0  0  0  0  0  0  0  0  0  0
  173.2369   -8.4537   19.2101 C   0  0  2  0  0  0  0  0  0  0  0  0
  173.9872   -8.3779   20.5382 C   0  0  0  0  0  0  0  0  0  0  0  0
  173.9136   -9.2950   21.3560 O   0  0  0  0  0  0  0  0  0  0  0  0
  174.0713   -9.1571   18.1214 C   0  0  0  0  0  0  0  0  0  0  0  0
  174.0320  -10.6627   18.2593 C   0  0  0  0  0  0  0  0  0  0  0  0
  174.5986  -11.4902   17.2828 C   0  0  0  0  0  0  0  0  0  0  0  0
  173.3852  -11.2547   19.3557 C   0  0  0  0  0  0  0  0  0  0  0  0
  174.5123  -12.8749   17.3930 C   0  0  0  0  0  0  0  0  0  0  0  0
  173.2943  -12.6427   19.4611 C   0  0  0  0  0  0  0  0  0  0  0  0
  173.8565  -13.4534   18.4789 C   0  0  0  0  0  0  0  0  0  0  0  0
  174.7186   -7.2385   20.7805 N   0  0  0  0  0  0  0  0  0  0  0  0
  176.2021   -7.3014   20.7809 C   0  0  2  0  0  0  0  0  0  0  0  0
  176.8320   -7.6147   19.3975 C   0  0  0  0  0  0  0  0  0  0  0  0
  176.5769   -8.6405   18.7724 O   0  0  0  0  0  0  0  0  0  0  0  0
  176.6621   -8.3379   21.8291 C   0  0  0  0  0  0  0  0  0  0  0  0
  176.1940   -8.0266   23.2395 C   0  0  0  0  0  0  0  0  0  0  0  0
  176.9096   -7.0359   23.9444 C   0  0  0  0  0  0  0  0  0  0  0  0
  176.5813   -6.7032   25.2511 C   0  0  0  0  0  0  0  0  0  0  0  0
  175.0938   -8.6725   23.8639 C   0  0  0  0  0  0  0  0  0  0  0  0
  174.7584   -8.3051   25.1956 C   0  0  0  0  0  0  0  0  0  0  0  0
  175.5138   -7.3387   25.8728 C   0  0  0  0  0  0  0  0  0  0  0  0
  174.3037   -9.6705   23.2484 C   0  0  0  0  0  0  0  0  0  0  0  0
  173.2290  -10.2627   23.9106 C   0  0  0  0  0  0  0  0  0  0  0  0
  172.9182   -9.8909   25.2103 C   0  0  0  0  0  0  0  0  0  0  0  0
  173.6767   -8.9181   25.8482 C   0  0  0  0  0  0  0  0  0  0  0  0
  177.6313   -6.6200   18.8843 N   0  0  0  0  0  0  0  0  0  0  0  0
  177.1252   -5.4376   18.1686 C   0  0  2  0  0  0  0  0  0  0  0  0
  176.7342   -5.5963   16.6795 C   0  0  0  0  0  0  0  0  0  0  0  0
  176.6571   -4.5936   15.9682 O   0  0  0  0  0  0  0  0  0  0  0  0
  177.9460   -4.1532   18.3849 C   0  0  0  0  0  0  0  0  0  0  0  0
  177.1139   -2.8610   18.4615 C   0  0  0  0  0  0  0  0  0  0  0  0
  175.7547   -2.9092   17.7477 C   0  0  0  0  0  0  0  0  0  0  0  0
  174.5596   -2.9850   18.7097 C   0  0  0  0  0  0  0  0  0  0  0  0
  173.7350   -1.7637   18.6034 N   0  0  0  0  0  4  0  0  0  0  0  0
  176.5275   -6.8694   16.2181 N   0  0  0  0  0  0  0  0  0  0  0  0
  177.6031   -7.8324   15.9222 C   0  0  2  0  0  0  0  0  0  0  0  0
  177.0511   -9.2271   15.5212 C   0  0  0  0  0  0  0  0  0  0  0  0
  176.2331   -9.7996   16.2584 O   0  0  0  0  0  0  0  0  0  0  0  0
  178.7737   -7.6988   16.8987 C   0  0  0  0  0  0  0  0  0  0  0  0
  179.8272   -6.6119   16.6950 C   0  0  0  0  0  0  0  0  0  0  0  0
  181.1190   -7.3819   16.5286 C   0  0  0  0  0  0  0  0  0  0  0  0
  181.3307   -8.3689   17.2971 O   0  0  0  0  0  1  0  0  0  0  0  0
  181.8271   -7.1539   15.5083 O   0  0  0  0  0  0  0  0  0  0  0  0
  177.3105   -9.7423   14.2596 N   0  0  0  0  0  0  0  0  0  0  0  0
  176.3700  -10.2580   13.2539 C   0  0  2  0  0  0  0  0  0  0  0  0
  175.7507  -11.6385   13.5286 C   0  0  0  0  0  0  0  0  0  0  0  0
  175.3063  -12.0017   14.6176 O   0  0  0  0  0  0  0  0  0  0  0  0
  177.1728  -10.3165   11.9449 C   0  0  0  0  0  0  0  0  0  0  0  0
  178.6252  -10.3246   12.4060 C   0  0  0  0  0  0  0  0  0  0  0  0
  178.5903   -9.4374   13.6341 C   0  0  0  0  0  0  0  0  0  0  0  0
  175.7434  -12.4816   12.4520 N   0  0  0  0  0  0  0  0  0  0  0  0
  1  2  2  0
  1  3  1  0
  1  4  1  0
  4  5  1  0
  4 10  1  0
  5  6  1  6
  5  8  1  0
  6  7  2  0
  6 11  1  0
  8  9  1  0
  9 10  1  0
 11 12  1  0
 12 13  1  1
 12 24  1  0
 13 14  1  0
 14 15  1  0
 14 19  2  0
 15 16  2  0
 15 17  1  0
 16 23  1  0
 17 18  1  0
 17 20  2  0
 18 19  1  0
 20 21  1  0
 21 22  1  0
 21 23  2  0
 24 25  2  0
 24 26  1  0
 26 27  1  0
 27 28  1  0
 27 30  1  1
 28 29  2  0
 28 37  1  0
 30 31  1  0
 31 32  1  0
 32 33  1  0
 33 34  1  0
 34 35  2  0
 34 36  1  0
 37 38  1  0
 38 39  1  0
 38 41  1  1
 39 40  2  0
 39 45  1  0
 41 42  1  0
 42 43  1  6
 42 44  1  0
 45 46  1  0
 46 47  1  0
 46 49  1  6
 47 48  2  0
 47 56  1  0
 49 50  1  0
 50 51  1  0
 51 52  1  0
 52 53  1  0
 53 54  2  0
 53 55  1  0
 56 57  1  0
 57 58  1  0
 57 60  1  6
 58 59  2  0
 58 65  1  0
 60 61  1  0
 61 62  1  0
 62 63  1  0
 63 64  1  0
 65 66  1  0
 66 67  1  1
 66 68  1  0
 70 67  1  6
 68 69  2  0
 68 74  1  0
 70 71  1  0
 70 72  1  0
 71 73  1  0
 72 73  1  0
 74 75  1  0
 74 80  1  0
 75 76  1  1
 75 78  1  0
 76 77  2  0
 76 82  1  0
 78 79  1  0
 79 80  1  0
 79 81  1  1
 82 83  1  0
 83 84  1  0
 83 86  1  6
 84 85  2  0
 84 90  1  0
 86 87  1  0
 87 88  1  0
 87 89  2  0
 90 91  1  0
 91 92  1  0
 91 94  1  1
 92 93  2  0
 92 96  1  0
 94 95  1  0
 96 97  1  0
 97 98  1  0
 97100  1  6
 98 99  2  0
 98107  1  0
100101  1  0
101102  2  0
101103  1  0
102104  1  0
103105  2  0
104106  2  0
105106  1  0
107108  1  0
108109  1  0
108111  1  1
109110  2  0
109122  1  0
111112  1  0
112113  2  0
112115  1  0
113114  1  0
114117  2  0
115116  2  0
115118  1  0
116117  1  0
116121  1  0
118119  2  0
119120  1  0
120121  2  0
122123  1  0
123124  1  0
123126  1  6
124125  2  0
124131  1  0
126127  1  0
127128  1  0
128129  1  0
129130  1  0
131132  1  0
132133  1  0
132135  1  1
133134  2  0
133140  1  0
135136  1  0
136137  1  0
137138  1  0
137139  2  0
140141  1  0
140146  1  0
141142  1  1
141144  1  0
142143  2  0
142147  1  0
144145  1  0
145146  1  0
M  CHG  6  35   1  54   1  64   1  88  -1 130   1 138  -1
M  END
$$$$
