
     RDKit          3D

147155  0  0  0  0  0  0  0  0999 V2000
  193.1723  -27.5161   41.8945 C   0  0  0  0  0  0  0  0  0  0  0  0
  192.7290  -27.0198   40.8559 O   0  0  0  0  0  0  0  0  0  0  0  0
  193.6772  -28.9359   41.9144 C   0  0  0  0  0  0  0  0  0  0  0  0
  193.2336  -26.8057   43.0739 N   0  0  0  0  0  0  0  0  0  0  0  0
  192.8717  -25.3896   43.2810 C   0  0  2  0  0  0  0  0  0  0  0  0
  193.9549  -24.4282   42.7498 C   0  0  0  0  0  0  0  0  0  0  0  0
  194.9549  -24.1387   43.3945 O   0  0  0  0  0  0  0  0  0  0  0  0
  192.7778  -25.2395   44.8018 C   0  0  0  0  0  0  0  0  0  0  0  0
  192.5472  -26.6585   45.3037 C   0  0  0  0  0  0  0  0  0  0  0  0
  193.3641  -27.5005   44.3416 C   0  0  0  0  0  0  0  0  0  0  0  0
  193.7661  -23.9984   41.4574 N   0  0  0  0  0  0  0  0  0  0  0  0
  193.6893  -22.5830   41.0571 C   0  0  1  0  0  0  0  0  0  0  0  0
  192.3476  -22.2374   40.3673 C   0  0  0  0  0  0  0  0  0  0  0  0
  192.0223  -23.1038   39.1794 C   0  0  0  0  0  0  0  0  0  0  0  0
  191.0482  -24.1475   39.0816 C   0  0  0  0  0  0  0  0  0  0  0  0
  190.0922  -24.6879   39.9674 C   0  0  0  0  0  0  0  0  0  0  0  0
  191.1282  -24.6796   37.7930 C   0  0  0  0  0  0  0  0  0  0  0  0
  192.0752  -23.9509   37.1097 N   0  0  0  0  0  0  0  0  0  0  0  0
  192.6146  -23.0049   37.9350 C   0  0  0  0  0  0  0  0  0  0  0  0
  190.3302  -25.7460   37.3571 C   0  0  0  0  0  0  0  0  0  0  0  0
  189.4123  -26.2743   38.2635 C   0  0  0  0  0  0  0  0  0  0  0  0
  188.4576  -27.6285   37.8046 Cl  0  0  0  0  0  0  0  0  0  0  0  0
  189.2802  -25.7540   39.5454 C   0  0  0  0  0  0  0  0  0  0  0  0
  193.9879  -21.6295   42.2377 C   0  0  0  0  0  0  0  0  0  0  0  0
  193.3956  -21.6811   43.3149 O   0  0  0  0  0  0  0  0  0  0  0  0
  194.8740  -20.6156   41.9464 N   0  0  0  0  0  0  0  0  0  0  0  0
  195.5649  -19.8477   42.9846 C   0  0  2  0  0  0  0  0  0  0  0  0
  196.9436  -20.4945   43.2802 C   0  0  0  0  0  0  0  0  0  0  0  0
  197.0650  -21.5869   43.8321 O   0  0  0  0  0  0  0  0  0  0  0  0
  194.6823  -19.7963   44.2535 C   0  0  0  0  0  0  0  0  0  0  0  0
  195.3869  -20.3935   45.4795 C   0  0  0  0  0  0  0  0  0  0  0  0
  195.6368  -19.3587   46.5740 C   0  0  0  0  0  0  0  0  0  0  0  0
  194.5541  -19.3216   47.5718 N   0  0  0  0  0  0  0  0  0  0  0  0
  194.6555  -18.7273   48.7703 C   0  0  0  0  0  0  0  0  0  0  0  0
  194.1374  -19.2741   49.8735 N   0  0  0  0  0  4  0  0  0  0  0  0
  195.2924  -17.5581   48.8778 N   0  0  0  0  0  0  0  0  0  0  0  0
  198.0275  -19.7118   42.9330 N   0  0  0  0  0  0  0  0  0  0  0  0
  198.0779  -18.9628   41.6791 C   0  0  2  0  0  0  0  0  0  0  0  0
  199.0583  -17.7655   41.8051 C   0  0  0  0  0  0  0  0  0  0  0  0
  198.6652  -16.5996   41.7687 O   0  0  0  0  0  0  0  0  0  0  0  0
  196.6961  -18.7273   41.0275 C   0  0  0  0  0  0  0  0  0  0  0  0
  196.5434  -17.7936   39.8124 C   0  0  1  0  0  0  0  0  0  0  0  0
  196.8085  -16.3348   40.1736 C   0  0  0  0  0  0  0  0  0  0  0  0
  197.3383  -18.1913   38.5686 C   0  0  0  0  0  0  0  0  0  0  0  0
  200.4036  -18.0736   42.0173 N   0  0  0  0  0  0  0  0  0  0  0  0
  200.7807  -19.4915   41.9703 C   0  0  2  0  0  0  0  0  0  0  0  0
  202.1432  -19.6349   42.6938 C   0  0  0  0  0  0  0  0  0  0  0  0
  202.9779  -20.4756   42.3459 O   0  0  0  0  0  0  0  0  0  0  0  0
  200.8824  -19.9900   40.5218 C   0  0  0  0  0  0  0  0  0  0  0  0
  202.0572  -19.4152   39.7197 C   0  0  0  0  0  0  0  0  0  0  0  0
  201.7464  -19.1511   38.2423 C   0  0  0  0  0  0  0  0  0  0  0  0
  200.8624  -20.2013   37.6965 N   0  0  0  0  0  0  0  0  0  0  0  0
  201.1763  -21.0136   36.6748 C   0  0  0  0  0  0  0  0  0  0  0  0
  200.4000  -22.0406   36.3253 N   0  0  0  0  0  4  0  0  0  0  0  0
  202.2984  -20.7973   35.9799 N   0  0  0  0  0  0  0  0  0  0  0  0
  202.3552  -18.7597   43.7425 N   0  0  0  0  0  0  0  0  0  0  0  0
  203.1241  -19.2575   44.8773 C   0  0  2  0  0  0  0  0  0  0  0  0
  203.2755  -18.2673   46.0610 C   0  0  0  0  0  0  0  0  0  0  0  0
  204.2876  -18.1797   46.7468 O   0  0  0  0  0  0  0  0  0  0  0  0
  204.5095  -19.7720   44.4522 C   0  0  0  0  0  0  0  0  0  0  0  0
  204.6361  -20.4106   43.0541 C   0  0  0  0  0  0  0  0  0  0  0  0
  205.9065  -20.0426   42.2780 C   0  0  0  0  0  0  0  0  0  0  0  0
  205.5994  -19.5989   40.8431 C   0  0  0  0  0  0  0  0  0  0  0  0
  204.7155  -18.4286   40.8209 N   0  0  0  0  0  4  0  0  0  0  0  0
  202.1049  -17.5937   46.3598 N   0  0  0  0  0  0  0  0  0  0  0  0
  200.7844  -18.2153   46.2910 C   0  0  1  0  0  0  0  0  0  0  0  0
  200.8317  -19.7425   46.1356 C   0  0  0  0  0  0  0  0  0  0  0  0
  200.0261  -17.7312   47.5484 C   0  0  0  0  0  0  0  0  0  0  0  0
  200.2328  -18.2173   48.6681 O   0  0  0  0  0  0  0  0  0  0  0  0
  199.5082  -20.4260   45.7730 C   0  0  1  0  0  0  0  0  0  0  0  0
  199.2768  -21.7636   46.5331 C   0  0  0  0  0  0  0  0  0  0  0  0
  198.1896  -19.9306   46.4314 C   0  0  0  0  0  0  0  0  0  0  0  0
  198.3974  -20.9908   47.5267 C   0  0  0  0  0  0  0  0  0  0  0  0
  199.1901  -16.6355   47.4206 N   0  0  0  0  0  0  0  0  0  0  0  0
  199.7421  -15.2916   47.6326 C   0  0  2  0  0  0  0  0  0  0  0  0
  200.0413  -15.0153   49.1053 C   0  0  0  0  0  0  0  0  0  0  0  0
  201.0822  -15.4125   49.6389 O   0  0  0  0  0  0  0  0  0  0  0  0
  198.6765  -14.3226   47.1062 C   0  0  0  0  0  0  0  0  0  0  0  0
  197.9483  -15.1509   46.0685 C   0  0  2  0  0  0  0  0  0  0  0  0
  197.9175  -16.5470   46.7050 C   0  0  0  0  0  0  0  0  0  0  0  0
  198.7338  -15.2023   44.8797 O   0  0  0  0  0  0  0  0  0  0  0  0
  199.0869  -14.2552   49.7222 N   0  0  0  0  0  0  0  0  0  0  0  0
  199.2802  -13.5336   50.9927 C   0  0  2  0  0  0  0  0  0  0  0  0
  200.6269  -12.7672   50.9951 C   0  0  0  0  0  0  0  0  0  0  0  0
  201.7229  -13.2819   51.1853 O   0  0  0  0  0  0  0  0  0  0  0  0
  199.2367  -14.5476   52.1164 C   0  0  0  0  0  0  0  0  0  0  0  0
  199.2665  -13.8446   53.4643 C   0  0  0  0  0  0  0  0  0  0  0  0
  200.3735  -13.3138   53.7350 O   0  0  0  0  0  1  0  0  0  0  0  0
  198.2126  -13.9516   54.1467 O   0  0  0  0  0  0  0  0  0  0  0  0
  200.5206  -11.4043   50.7857 N   0  0  0  0  0  0  0  0  0  0  0  0
  201.7091  -10.5693   50.7202 C   0  0  2  0  0  0  0  0  0  0  0  0
  201.5058   -9.5656   49.5754 C   0  0  0  0  0  0  0  0  0  0  0  0
  201.8703   -8.3846   49.6514 O   0  0  0  0  0  0  0  0  0  0  0  0
  202.9873  -11.4025   50.5732 C   0  0  0  0  0  0  0  0  0  0  0  0
  202.7409  -12.7134   50.0600 O   0  0  0  0  0  0  0  0  0  0  0  0
  200.8000  -10.0309   48.4853 N   0  0  0  0  0  0  0  0  0  0  0  0
  199.6734   -9.2741   47.9665 C   0  0  2  0  0  0  0  0  0  0  0  0
  198.5300   -9.2371   48.9782 C   0  0  0  0  0  0  0  0  0  0  0  0
  198.3475   -8.2466   49.6860 O   0  0  0  0  0  0  0  0  0  0  0  0
  199.2013   -9.7791   46.5886 C   0  0  0  0  0  0  0  0  0  0  0  0
  199.6909   -8.8970   45.4618 C   0  0  0  0  0  0  0  0  0  0  0  0
  200.2357   -7.6339   45.7208 C   0  0  0  0  0  0  0  0  0  0  0  0
  199.5661   -9.3198   44.1289 C   0  0  0  0  0  0  0  0  0  0  0  0
  200.6362   -6.8087   44.6740 C   0  0  0  0  0  0  0  0  0  0  0  0
  199.9623   -8.4886   43.0809 C   0  0  0  0  0  0  0  0  0  0  0  0
  200.4961   -7.2321   43.3530 C   0  0  0  0  0  0  0  0  0  0  0  0
  197.7414  -10.3601   49.0740 N   0  0  0  0  0  0  0  0  0  0  0  0
  196.8931  -10.7649   47.9245 C   0  0  2  0  0  0  0  0  0  0  0  0
  196.6736   -9.6523   46.8650 C   0  0  0  0  0  0  0  0  0  0  0  0
  196.7075   -8.4571   47.1452 O   0  0  0  0  0  0  0  0  0  0  0  0
  195.5367  -11.2779   48.4555 C   0  0  0  0  0  0  0  0  0  0  0  0
  195.6176  -11.8885   49.8432 C   0  0  0  0  0  0  0  0  0  0  0  0
  196.0922  -13.2143   49.9296 C   0  0  0  0  0  0  0  0  0  0  0  0
  196.1714  -13.8727   51.1486 C   0  0  0  0  0  0  0  0  0  0  0  0
  195.2466  -11.1997   51.0287 C   0  0  0  0  0  0  0  0  0  0  0  0
  195.3532  -11.8821   52.2711 C   0  0  0  0  0  0  0  0  0  0  0  0
  195.7994  -13.2097   52.3113 C   0  0  0  0  0  0  0  0  0  0  0  0
  194.7677   -9.8697   51.0589 C   0  0  0  0  0  0  0  0  0  0  0  0
  194.4270   -9.2431   52.2570 C   0  0  0  0  0  0  0  0  0  0  0  0
  194.5376   -9.9264   53.4591 C   0  0  0  0  0  0  0  0  0  0  0  0
  194.9985  -11.2364   53.4666 C   0  0  0  0  0  0  0  0  0  0  0  0
  196.5227  -10.1012   45.5738 N   0  0  0  0  0  0  0  0  0  0  0  0
  196.1598  -11.4815   45.2140 C   0  0  2  0  0  0  0  0  0  0  0  0
  196.7403  -12.0730   43.9067 C   0  0  0  0  0  0  0  0  0  0  0  0
  196.7062  -13.2918   43.7315 O   0  0  0  0  0  0  0  0  0  0  0  0
  194.6611  -11.8087   45.3443 C   0  0  0  0  0  0  0  0  0  0  0  0
  194.2223  -12.2778   46.7427 C   0  0  0  0  0  0  0  0  0  0  0  0
  193.6586  -13.7049   46.8122 C   0  0  0  0  0  0  0  0  0  0  0  0
  192.2017  -13.7655   47.2951 C   0  0  0  0  0  0  0  0  0  0  0  0
  191.4016  -14.6363   46.4093 N   0  0  0  0  0  4  0  0  0  0  0  0
  197.2356  -11.1893   42.9849 N   0  0  0  0  0  0  0  0  0  0  0  0
  198.4989  -11.3748   42.2490 C   0  0  2  0  0  0  0  0  0  0  0  0
  199.6228  -10.4340   42.7616 C   0  0  0  0  0  0  0  0  0  0  0  0
  199.6062   -9.2319   42.4536 O   0  0  0  0  0  0  0  0  0  0  0  0
  198.2625  -11.5771   40.7507 C   0  0  0  0  0  0  0  0  0  0  0  0
  199.2076  -10.9476   39.7294 C   0  0  0  0  0  0  0  0  0  0  0  0
  200.4993  -11.7157   39.9050 C   0  0  0  0  0  0  0  0  0  0  0  0
  201.4563  -11.4668   39.1102 O   0  0  0  0  0  1  0  0  0  0  0  0
  200.6498  -12.4068   40.9510 O   0  0  0  0  0  0  0  0  0  0  0  0
  200.5245  -10.8820   43.7158 N   0  0  0  0  0  0  0  0  0  0  0  0
  201.8133  -10.3023   44.1224 C   0  0  2  0  0  0  0  0  0  0  0  0
  202.9885  -10.4731   43.1455 C   0  0  0  0  0  0  0  0  0  0  0  0
  203.2445  -11.5103   42.5339 O   0  0  0  0  0  0  0  0  0  0  0  0
  202.1602  -10.9870   45.4537 C   0  0  0  0  0  0  0  0  0  0  0  0
  201.3183  -12.2572   45.4427 C   0  0  0  0  0  0  0  0  0  0  0  0
  200.0553  -11.8141   44.7321 C   0  0  0  0  0  0  0  0  0  0  0  0
  203.7780   -9.3652   43.0081 N   0  0  0  0  0  0  0  0  0  0  0  0
  1  2  2  0
  1  3  1  0
  1  4  1  0
  4  5  1  0
  4 10  1  0
  5  6  1  1
  5  8  1  0
  6  7  2  0
  6 11  1  0
  8  9  1  0
  9 10  1  0
 11 12  1  0
 12 13  1  1
 12 24  1  0
 13 14  1  0
 14 15  1  0
 14 19  2  0
 15 16  2  0
 15 17  1  0
 16 23  1  0
 17 18  1  0
 17 20  2  0
 18 19  1  0
 20 21  1  0
 21 22  1  0
 21 23  2  0
 24 25  2  0
 24 26  1  0
 26 27  1  0
 27 28  1  0
 27 30  1  1
 28 29  2  0
 28 37  1  0
 30 31  1  0
 31 32  1  0
 32 33  1  0
 33 34  1  0
 34 35  2  0
 34 36  1  0
 37 38  1  0
 38 39  1  0
 38 41  1  1
 39 40  2  0
 39 45  1  0
 41 42  1  0
 42 43  1  1
 42 44  1  0
 45 46  1  0
 46 47  1  0
 46 49  1  6
 47 48  2  0
 47 56  1  0
 49 50  1  0
 50 51  1  0
 51 52  1  0
 52 53  1  0
 53 54  2  0
 53 55  1  0
 56 57  1  0
 57 58  1  0
 57 60  1  6
 58 59  2  0
 58 65  1  0
 60 61  1  0
 61 62  1  0
 62 63  1  0
 63 64  1  0
 65 66  1  0
 66 67  1  1
 66 68  1  0
 70 67  1  1
 68 69  2  0
 68 74  1  0
 70 71  1  0
 70 72  1  0
 71 73  1  0
 72 73  1  0
 74 75  1  0
 74 80  1  0
 75 76  1  1
 75 78  1  0
 76 77  2  0
 76 82  1  0
 78 79  1  0
 79 80  1  0
 79 81  1  6
 82 83  1  0
 83 84  1  0
 83 86  1  1
 84 85  2  0
 84 90  1  0
 86 87  1  0
 87 88  1  0
 87 89  2  0
 90 91  1  0
 91 92  1  0
 91 94  1  6
 92 93  2  0
 92 96  1  0
 94 95  1  0
 96 97  1  0
 97 98  1  0
 97100  1  6
 98 99  2  0
 98107  1  0
100101  1  0
101102  2  0
101103  1  0
102104  1  0
103105  2  0
104106  2  0
105106  1  0
107108  1  0
108109  1  0
108111  1  1
109110  2  0
109122  1  0
111112  1  0
112113  2  0
112115  1  0
113114  1  0
114117  2  0
115116  2  0
115118  1  0
116117  1  0
116121  1  0
118119  2  0
119120  1  0
120121  2  0
122123  1  0
123124  1  0
123126  1  6
124125  2  0
124131  1  0
126127  1  0
127128  1  0
128129  1  0
129130  1  0
131132  1  0
132133  1  0
132135  1  6
133134  2  0
133140  1  0
135136  1  0
136137  1  0
137138  1  0
137139  2  0
140141  1  0
140146  1  0
141142  1  6
141144  1  0
142143  2  0
142147  1  0
144145  1  0
145146  1  0
M  CHG  6  35   1  54   1  64   1  88  -1 130   1 138  -1
M  END
$$$$
