
     RDKit          3D

147155  0  0  0  0  0  0  0  0999 V2000
  190.6517  -25.3598   43.6717 C   0  0  0  0  0  0  0  0  0  0  0  0
  189.8586  -24.5431   44.1465 O   0  0  0  0  0  0  0  0  0  0  0  0
  190.2099  -26.7643   43.3502 C   0  0  0  0  0  0  0  0  0  0  0  0
  191.9645  -25.0331   43.4083 N   0  0  0  0  0  0  0  0  0  0  0  0
  192.6319  -23.7430   43.6721 C   0  0  2  0  0  0  0  0  0  0  0  0
  192.2496  -22.6671   42.6349 C   0  0  0  0  0  0  0  0  0  0  0  0
  191.2070  -22.7081   41.9939 O   0  0  0  0  0  0  0  0  0  0  0  0
  194.1253  -24.0530   43.5379 C   0  0  0  0  0  0  0  0  0  0  0  0
  194.2158  -25.5572   43.7573 C   0  0  0  0  0  0  0  0  0  0  0  0
  192.9362  -26.0741   43.1272 C   0  0  0  0  0  0  0  0  0  0  0  0
  193.1178  -21.6037   42.5549 N   0  0  0  0  0  0  0  0  0  0  0  0
  192.8786  -20.3971   41.7449 C   0  0  1  0  0  0  0  0  0  0  0  0
  191.6046  -19.6356   42.1835 C   0  0  0  0  0  0  0  0  0  0  0  0
  190.3221  -20.3879   41.9449 C   0  0  0  0  0  0  0  0  0  0  0  0
  188.9820  -19.9689   42.2218 C   0  0  0  0  0  0  0  0  0  0  0  0
  188.4071  -18.7913   42.7442 C   0  0  0  0  0  0  0  0  0  0  0  0
  188.1295  -21.0116   41.8530 C   0  0  0  0  0  0  0  0  0  0  0  0
  188.9133  -22.0083   41.3172 N   0  0  0  0  0  0  0  0  0  0  0  0
  190.2282  -21.6405   41.3693 C   0  0  0  0  0  0  0  0  0  0  0  0
  186.7386  -20.9529   42.0140 C   0  0  0  0  0  0  0  0  0  0  0  0
  186.2029  -19.7855   42.5555 C   0  0  0  0  0  0  0  0  0  0  0  0
  184.5102  -19.6869   42.8398 Cl  0  0  0  0  0  0  0  0  0  0  0  0
  187.0137  -18.7131   42.9076 C   0  0  0  0  0  0  0  0  0  0  0  0
  194.1153  -19.4691   41.7075 C   0  0  0  0  0  0  0  0  0  0  0  0
  194.1696  -18.3909   42.2978 O   0  0  0  0  0  0  0  0  0  0  0  0
  195.1091  -19.8718   40.8424 N   0  0  0  0  0  0  0  0  0  0  0  0
  195.5458  -19.0570   39.7066 C   0  0  2  0  0  0  0  0  0  0  0  0
  195.7542  -17.5904   40.1671 C   0  0  0  0  0  0  0  0  0  0  0  0
  195.4657  -16.6220   39.4659 O   0  0  0  0  0  0  0  0  0  0  0  0
  194.4927  -19.1495   38.5778 C   0  0  0  0  0  0  0  0  0  0  0  0
  194.9795  -19.9947   37.3926 C   0  0  0  0  0  0  0  0  0  0  0  0
  195.2703  -19.1531   36.1524 C   0  0  0  0  0  0  0  0  0  0  0  0
  194.0423  -18.7387   35.4525 N   0  0  0  0  0  0  0  0  0  0  0  0
  193.7913  -18.9929   34.1594 C   0  0  0  0  0  0  0  0  0  0  0  0
  194.7214  -18.8252   33.2152 N   0  0  0  0  0  4  0  0  0  0  0  0
  192.5833  -19.4295   33.7928 N   0  0  0  0  0  0  0  0  0  0  0  0
  196.3534  -17.4604   41.4048 N   0  0  0  0  0  0  0  0  0  0  0  0
  195.8259  -16.5695   42.4362 C   0  0  2  0  0  0  0  0  0  0  0  0
  196.4824  -16.8837   43.8077 C   0  0  0  0  0  0  0  0  0  0  0  0
  197.0951  -17.9324   44.0075 O   0  0  0  0  0  0  0  0  0  0  0  0
  194.2948  -16.3666   42.3736 C   0  0  0  0  0  0  0  0  0  0  0  0
  193.6625  -15.4361   41.3221 C   0  0  1  0  0  0  0  0  0  0  0  0
  193.6951  -16.0459   39.9236 C   0  0  0  0  0  0  0  0  0  0  0  0
  192.2606  -14.9225   41.6508 C   0  0  0  0  0  0  0  0  0  0  0  0
  196.3925  -15.8949   44.7895 N   0  0  0  0  0  0  0  0  0  0  0  0
  197.0209  -16.1796   46.0852 C   0  0  2  0  0  0  0  0  0  0  0  0
  198.4728  -16.6429   45.8065 C   0  0  0  0  0  0  0  0  0  0  0  0
  198.7151  -17.6995   45.2154 O   0  0  0  0  0  0  0  0  0  0  0  0
  196.2457  -17.2610   46.8512 C   0  0  0  0  0  0  0  0  0  0  0  0
  196.7754  -17.5636   48.2589 C   0  0  0  0  0  0  0  0  0  0  0  0
  196.0138  -16.8594   49.3871 C   0  0  0  0  0  0  0  0  0  0  0  0
  196.4900  -15.4710   49.5543 N   0  0  0  0  0  0  0  0  0  0  0  0
  195.7986  -14.3754   49.2024 C   0  0  0  0  0  0  0  0  0  0  0  0
  196.0425  -13.1820   49.7463 N   0  0  0  0  0  4  0  0  0  0  0  0
  194.8340  -14.4709   48.2810 N   0  0  0  0  0  0  0  0  0  0  0  0
  199.4656  -15.7942   46.2590 N   0  0  0  0  0  0  0  0  0  0  0  0
  200.7590  -15.8693   45.5894 C   0  0  2  0  0  0  0  0  0  0  0  0
  201.4119  -14.5034   45.2536 C   0  0  0  0  0  0  0  0  0  0  0  0
  201.0131  -13.7618   44.3628 O   0  0  0  0  0  0  0  0  0  0  0  0
  200.7018  -16.7410   44.3238 C   0  0  0  0  0  0  0  0  0  0  0  0
  201.8412  -17.7570   44.1043 C   0  0  0  0  0  0  0  0  0  0  0  0
  203.0462  -17.2302   43.3156 C   0  0  0  0  0  0  0  0  0  0  0  0
  202.6702  -16.8300   41.8843 C   0  0  0  0  0  0  0  0  0  0  0  0
  202.1555  -17.9744   41.1249 N   0  0  0  0  0  4  0  0  0  0  0  0
  202.5772  -14.2690   45.9609 N   0  0  0  0  0  0  0  0  0  0  0  0
  202.6255  -14.1889   47.4190 C   0  0  1  0  0  0  0  0  0  0  0  0
  201.8583  -15.3185   48.1220 C   0  0  0  0  0  0  0  0  0  0  0  0
  204.1257  -14.1199   47.7866 C   0  0  0  0  0  0  0  0  0  0  0  0
  204.9590  -14.8923   47.2946 O   0  0  0  0  0  0  0  0  0  0  0  0
  201.5798  -15.1180   49.6163 C   0  0  1  0  0  0  0  0  0  0  0  0
  200.4697  -14.0657   49.9005 C   0  0  0  0  0  0  0  0  0  0  0  0
  200.6765  -16.1375   50.3662 C   0  0  0  0  0  0  0  0  0  0  0  0
  199.4765  -15.2263   50.0554 C   0  0  0  0  0  0  0  0  0  0  0  0
  204.5496  -13.0767   48.5913 N   0  0  0  0  0  0  0  0  0  0  0  0
  205.7480  -12.3219   48.2042 C   0  0  2  0  0  0  0  0  0  0  0  0
  207.0297  -13.1288   48.4066 C   0  0  0  0  0  0  0  0  0  0  0  0
  207.5163  -13.8080   47.4968 O   0  0  0  0  0  0  0  0  0  0  0  0
  205.7502  -11.0717   49.0923 C   0  0  0  0  0  0  0  0  0  0  0  0
  204.2817  -10.8775   49.4074 C   0  0  2  0  0  0  0  0  0  0  0  0
  203.7735  -12.3163   49.5706 C   0  0  0  0  0  0  0  0  0  0  0  0
  203.6389  -10.2852   48.2811 O   0  0  0  0  0  0  0  0  0  0  0  0
  207.5848  -12.9685   49.6458 N   0  0  0  0  0  0  0  0  0  0  0  0
  209.0300  -12.8470   49.9090 C   0  0  2  0  0  0  0  0  0  0  0  0
  209.5907  -11.5269   49.3228 C   0  0  0  0  0  0  0  0  0  0  0  0
  209.7630  -11.3107   48.1287 O   0  0  0  0  0  0  0  0  0  0  0  0
  209.7190  -14.0453   49.2907 C   0  0  0  0  0  0  0  0  0  0  0  0
  209.2872  -14.2144   47.8426 C   0  0  0  0  0  0  0  0  0  0  0  0
  208.1643  -14.7635   47.7091 O   0  0  0  0  0  1  0  0  0  0  0  0
  210.1363  -13.8506   46.9855 O   0  0  0  0  0  0  0  0  0  0  0  0
  209.9251  -10.5691   50.2628 N   0  0  0  0  0  0  0  0  0  0  0  0
  209.4246  -10.6606   51.6249 C   0  0  2  0  0  0  0  0  0  0  0  0
  209.7333  -12.0757   52.1362 C   0  0  0  0  0  0  0  0  0  0  0  0
  210.8894  -12.4938   52.2845 O   0  0  0  0  0  0  0  0  0  0  0  0
  207.9384  -10.2966   51.7149 C   0  0  0  0  0  0  0  0  0  0  0  0
  207.5789   -9.2103   50.8586 O   0  0  0  0  0  0  0  0  0  0  0  0
  208.6420  -12.8970   52.3299 N   0  0  0  0  0  0  0  0  0  0  0  0
  208.8239  -14.2489   52.8302 C   0  0  2  0  0  0  0  0  0  0  0  0
  208.0639  -15.2553   51.9688 C   0  0  0  0  0  0  0  0  0  0  0  0
  207.2773  -16.0531   52.4788 O   0  0  0  0  0  0  0  0  0  0  0  0
  208.4615  -14.3850   54.3224 C   0  0  0  0  0  0  0  0  0  0  0  0
  209.2790  -13.4567   55.1927 C   0  0  0  0  0  0  0  0  0  0  0  0
  208.9191  -12.1130   55.3488 C   0  0  0  0  0  0  0  0  0  0  0  0
  210.4413  -13.9241   55.8265 C   0  0  0  0  0  0  0  0  0  0  0  0
  209.7064  -11.2544   56.1105 C   0  0  0  0  0  0  0  0  0  0  0  0
  211.2322  -13.0604   56.5843 C   0  0  0  0  0  0  0  0  0  0  0  0
  210.8660  -11.7248   56.7254 C   0  0  0  0  0  0  0  0  0  0  0  0
  208.3182  -15.2412   50.6171 N   0  0  0  0  0  0  0  0  0  0  0  0
  208.9235  -16.4320   49.9688 C   0  0  2  0  0  0  0  0  0  0  0  0
  210.4540  -16.5723   50.1843 C   0  0  0  0  0  0  0  0  0  0  0  0
  211.0126  -17.6629   50.2652 O   0  0  0  0  0  0  0  0  0  0  0  0
  208.5922  -16.4075   48.4606 C   0  0  0  0  0  0  0  0  0  0  0  0
  207.6895  -17.5448   48.0169 C   0  0  0  0  0  0  0  0  0  0  0  0
  206.3354  -17.2280   47.7788 C   0  0  0  0  0  0  0  0  0  0  0  0
  205.4231  -18.2037   47.4027 C   0  0  0  0  0  0  0  0  0  0  0  0
  208.1380  -18.8801   47.8348 C   0  0  0  0  0  0  0  0  0  0  0  0
  207.1944  -19.8631   47.4295 C   0  0  0  0  0  0  0  0  0  0  0  0
  205.8516  -19.5142   47.2337 C   0  0  0  0  0  0  0  0  0  0  0  0
  209.4711  -19.3057   48.0363 C   0  0  0  0  0  0  0  0  0  0  0  0
  209.8534  -20.6311   47.8325 C   0  0  0  0  0  0  0  0  0  0  0  0
  208.9174  -21.5756   47.4376 C   0  0  0  0  0  0  0  0  0  0  0  0
  207.5973  -21.1943   47.2363 C   0  0  0  0  0  0  0  0  0  0  0  0
  211.1506  -15.3864   50.1933 N   0  0  0  0  0  0  0  0  0  0  0  0
  212.6125  -15.2858   50.3330 C   0  0  2  0  0  0  0  0  0  0  0  0
  213.4883  -16.3608   49.6453 C   0  0  0  0  0  0  0  0  0  0  0  0
  213.2279  -17.5516   49.8228 O   0  0  0  0  0  0  0  0  0  0  0  0
  213.1056  -15.0127   51.7656 C   0  0  0  0  0  0  0  0  0  0  0  0
  212.1371  -14.1927   52.6361 C   0  0  0  0  0  0  0  0  0  0  0  0
  212.5711  -13.9933   54.0960 C   0  0  0  0  0  0  0  0  0  0  0  0
  211.5209  -14.4579   55.1162 C   0  0  0  0  0  0  0  0  0  0  0  0
  211.9004  -14.0275   56.4778 N   0  0  0  0  0  4  0  0  0  0  0  0
  214.4999  -15.9199   48.8339 N   0  0  0  0  0  0  0  0  0  0  0  0
  215.4262  -16.8032   48.1035 C   0  0  2  0  0  0  0  0  0  0  0  0
  216.4399  -17.5039   49.0480 C   0  0  0  0  0  0  0  0  0  0  0  0
  217.1967  -16.8191   49.7541 O   0  0  0  0  0  0  0  0  0  0  0  0
  215.8799  -16.1850   46.7792 C   0  0  0  0  0  0  0  0  0  0  0  0
  216.7849  -14.9547   46.7729 C   0  0  0  0  0  0  0  0  0  0  0  0
  216.6954  -14.4427   45.3519 C   0  0  0  0  0  0  0  0  0  0  0  0
  217.4175  -13.4517   45.0263 O   0  0  0  0  0  1  0  0  0  0  0  0
  216.0801  -15.1417   44.4991 O   0  0  0  0  0  0  0  0  0  0  0  0
  216.3678  -18.8738   49.2538 N   0  0  0  0  0  0  0  0  0  0  0  0
  217.1029  -19.7103   50.2140 C   0  0  2  0  0  0  0  0  0  0  0  0
  218.5837  -19.9840   49.9022 C   0  0  0  0  0  0  0  0  0  0  0  0
  219.0413  -20.1499   48.7715 O   0  0  0  0  0  0  0  0  0  0  0  0
  216.3404  -21.0439   50.2522 C   0  0  0  0  0  0  0  0  0  0  0  0
  215.5503  -21.0515   48.9491 C   0  0  0  0  0  0  0  0  0  0  0  0
  215.1970  -19.5894   48.7647 C   0  0  0  0  0  0  0  0  0  0  0  0
  219.3913  -20.0576   51.0032 N   0  0  0  0  0  0  0  0  0  0  0  0
  1  2  2  0
  1  3  1  0
  1  4  1  0
  4  5  1  0
  4 10  1  0
  5  6  1  6
  5  8  1  0
  6  7  2  0
  6 11  1  0
  8  9  1  0
  9 10  1  0
 11 12  1  0
 12 13  1  1
 12 24  1  0
 13 14  1  0
 14 15  1  0
 14 19  2  0
 15 16  2  0
 15 17  1  0
 16 23  1  0
 17 18  1  0
 17 20  2  0
 18 19  1  0
 20 21  1  0
 21 22  1  0
 21 23  2  0
 24 25  2  0
 24 26  1  0
 26 27  1  0
 27 28  1  0
 27 30  1  6
 28 29  2  0
 28 37  1  0
 30 31  1  0
 31 32  1  0
 32 33  1  0
 33 34  1  0
 34 35  2  0
 34 36  1  0
 37 38  1  0
 38 39  1  0
 38 41  1  1
 39 40  2  0
 39 45  1  0
 41 42  1  0
 42 43  1  6
 42 44  1  0
 45 46  1  0
 46 47  1  0
 46 49  1  6
 47 48  2  0
 47 56  1  0
 49 50  1  0
 50 51  1  0
 51 52  1  0
 52 53  1  0
 53 54  2  0
 53 55  1  0
 56 57  1  0
 57 58  1  0
 57 60  1  6
 58 59  2  0
 58 65  1  0
 60 61  1  0
 61 62  1  0
 62 63  1  0
 63 64  1  0
 65 66  1  0
 66 67  1  1
 66 68  1  0
 70 67  1  6
 68 69  2  0
 68 74  1  0
 70 71  1  0
 70 72  1  0
 71 73  1  0
 72 73  1  0
 74 75  1  0
 74 80  1  0
 75 76  1  1
 75 78  1  0
 76 77  2  0
 76 82  1  0
 78 79  1  0
 79 80  1  0
 79 81  1  6
 82 83  1  0
 83 84  1  0
 83 86  1  6
 84 85  2  0
 84 90  1  0
 86 87  1  0
 87 88  1  0
 87 89  2  0
 90 91  1  0
 91 92  1  0
 91 94  1  6
 92 93  2  0
 92 96  1  0
 94 95  1  0
 96 97  1  0
 97 98  1  0
 97100  1  1
 98 99  2  0
 98107  1  0
100101  1  0
101102  2  0
101103  1  0
102104  1  0
103105  2  0
104106  2  0
105106  1  0
107108  1  0
108109  1  0
108111  1  6
109110  2  0
109122  1  0
111112  1  0
112113  2  0
112115  1  0
113114  1  0
114117  2  0
115116  2  0
115118  1  0
116117  1  0
116121  1  0
118119  2  0
119120  1  0
120121  2  0
122123  1  0
123124  1  0
123126  1  1
124125  2  0
124131  1  0
126127  1  0
127128  1  0
128129  1  0
129130  1  0
131132  1  0
132133  1  0
132135  1  6
133134  2  0
133140  1  0
135136  1  0
136137  1  0
137138  1  0
137139  2  0
140141  1  0
140146  1  0
141142  1  6
141144  1  0
142143  2  0
142147  1  0
144145  1  0
145146  1  0
M  CHG  6  35   1  54   1  64   1  88  -1 130   1 138  -1
M  END
$$$$
