
     RDKit          3D

147155  0  0  0  0  0  0  0  0999 V2000
  204.1978  -11.9497   57.0473 C   0  0  0  0  0  0  0  0  0  0  0  0
  204.1377  -12.1520   58.2626 O   0  0  0  0  0  0  0  0  0  0  0  0
  205.3705  -11.2188   56.4459 C   0  0  0  0  0  0  0  0  0  0  0  0
  203.2115  -12.3809   56.1867 N   0  0  0  0  0  0  0  0  0  0  0  0
  203.3784  -12.8132   54.7850 C   0  0  2  0  0  0  0  0  0  0  0  0
  203.5685  -11.6196   53.8264 C   0  0  0  0  0  0  0  0  0  0  0  0
  203.1359  -11.6169   52.6808 O   0  0  0  0  0  0  0  0  0  0  0  0
  202.0622  -13.5177   54.4451 C   0  0  0  0  0  0  0  0  0  0  0  0
  201.4902  -13.9145   55.7994 C   0  0  0  0  0  0  0  0  0  0  0  0
  201.9095  -12.7672   56.6992 C   0  0  0  0  0  0  0  0  0  0  0  0
  204.1717  -10.5172   54.3847 N   0  0  0  0  0  0  0  0  0  0  0  0
  204.4274   -9.2582   53.6646 C   0  0  1  0  0  0  0  0  0  0  0  0
  205.7476   -9.2979   52.8579 C   0  0  0  0  0  0  0  0  0  0  0  0
  206.9374   -9.7828   53.6433 C   0  0  0  0  0  0  0  0  0  0  0  0
  207.9131  -10.7591   53.2653 C   0  0  0  0  0  0  0  0  0  0  0  0
  208.1278  -11.5401   52.1101 C   0  0  0  0  0  0  0  0  0  0  0  0
  208.8098  -10.8923   54.3275 C   0  0  0  0  0  0  0  0  0  0  0  0
  208.4310   -9.9902   55.2957 N   0  0  0  0  0  0  0  0  0  0  0  0
  207.3097   -9.3221   54.8917 C   0  0  0  0  0  0  0  0  0  0  0  0
  209.8852  -11.7906   54.3097 C   0  0  0  0  0  0  0  0  0  0  0  0
  210.0565  -12.5659   53.1639 C   0  0  0  0  0  0  0  0  0  0  0  0
  211.3172  -13.7338   53.1162 Cl  0  0  0  0  0  0  0  0  0  0  0  0
  209.2043  -12.4423   52.0730 C   0  0  0  0  0  0  0  0  0  0  0  0
  203.2288   -8.8423   52.7800 C   0  0  0  0  0  0  0  0  0  0  0  0
  202.1828   -8.3790   53.2330 O   0  0  0  0  0  0  0  0  0  0  0  0
  203.3611   -9.1629   51.4467 N   0  0  0  0  0  0  0  0  0  0  0  0
  202.3339   -8.8457   50.4522 C   0  0  2  0  0  0  0  0  0  0  0  0
  202.0371  -10.1015   49.5910 C   0  0  0  0  0  0  0  0  0  0  0  0
  202.8126  -11.0522   49.5058 O   0  0  0  0  0  0  0  0  0  0  0  0
  202.8172   -7.6644   49.5788 C   0  0  0  0  0  0  0  0  0  0  0  0
  204.2556   -7.8576   49.0793 C   0  0  0  0  0  0  0  0  0  0  0  0
  204.3397   -7.9575   47.5581 C   0  0  0  0  0  0  0  0  0  0  0  0
  204.5993   -6.6548   46.9217 N   0  0  0  0  0  0  0  0  0  0  0  0
  203.6634   -5.9213   46.3004 C   0  0  0  0  0  0  0  0  0  0  0  0
  202.4178   -5.8224   46.7730 N   0  0  0  0  0  4  0  0  0  0  0  0
  203.9733   -5.2642   45.1796 N   0  0  0  0  0  0  0  0  0  0  0  0
  200.8589  -10.0358   48.8732 N   0  0  0  0  0  0  0  0  0  0  0  0
  199.8009  -11.0334   49.0191 C   0  0  2  0  0  0  0  0  0  0  0  0
  198.5647  -10.4098   49.7217 C   0  0  0  0  0  0  0  0  0  0  0  0
  197.4394  -10.8946   49.6038 O   0  0  0  0  0  0  0  0  0  0  0  0
  200.2998  -12.4205   49.4844 C   0  0  0  0  0  0  0  0  0  0  0  0
  201.5003  -13.0998   48.7999 C   0  0  1  0  0  0  0  0  0  0  0  0
  202.3563  -13.8844   49.7901 C   0  0  0  0  0  0  0  0  0  0  0  0
  201.1670  -13.9594   47.5804 C   0  0  0  0  0  0  0  0  0  0  0  0
  198.7981   -9.3027   50.5400 N   0  0  0  0  0  0  0  0  0  0  0  0
  197.6348   -8.7089   51.2100 C   0  0  2  0  0  0  0  0  0  0  0  0
  196.5400   -9.8018   51.2972 C   0  0  0  0  0  0  0  0  0  0  0  0
  196.4252  -10.5283   52.2890 O   0  0  0  0  0  0  0  0  0  0  0  0
  197.1174   -7.4851   50.4410 C   0  0  0  0  0  0  0  0  0  0  0  0
  195.9713   -6.7276   51.1240 C   0  0  0  0  0  0  0  0  0  0  0  0
  195.4470   -5.5245   50.3325 C   0  0  0  0  0  0  0  0  0  0  0  0
  194.3076   -4.8940   51.0301 N   0  0  0  0  0  0  0  0  0  0  0  0
  193.2023   -4.4276   50.4276 C   0  0  0  0  0  0  0  0  0  0  0  0
  192.9123   -4.7218   49.1592 N   0  0  0  0  0  4  0  0  0  0  0  0
  192.3599   -3.6433   51.1087 N   0  0  0  0  0  0  0  0  0  0  0  0
  195.7079   -9.8997   50.1979 N   0  0  0  0  0  0  0  0  0  0  0  0
  194.6056  -10.8508   50.2825 C   0  0  2  0  0  0  0  0  0  0  0  0
  193.4717  -10.6454   49.2448 C   0  0  0  0  0  0  0  0  0  0  0  0
  192.2797  -10.6660   49.5297 O   0  0  0  0  0  0  0  0  0  0  0  0
  194.0072  -10.9135   51.6977 C   0  0  0  0  0  0  0  0  0  0  0  0
  194.1982   -9.6839   52.6089 C   0  0  0  0  0  0  0  0  0  0  0  0
  192.9184   -8.9041   52.9341 C   0  0  0  0  0  0  0  0  0  0  0  0
  192.8504   -8.4939   54.4097 C   0  0  0  0  0  0  0  0  0  0  0  0
  193.0679   -7.0530   54.5765 N   0  0  0  0  0  4  0  0  0  0  0  0
  193.9317  -10.5811   47.9420 N   0  0  0  0  0  0  0  0  0  0  0  0
  193.1275  -10.9800   46.7891 C   0  0  1  0  0  0  0  0  0  0  0  0
  192.8756   -9.8394   45.7917 C   0  0  0  0  0  0  0  0  0  0  0  0
  193.8463  -12.2055   46.1791 C   0  0  0  0  0  0  0  0  0  0  0  0
  194.9598  -12.1158   45.6454 O   0  0  0  0  0  0  0  0  0  0  0  0
  193.3191   -8.4414   46.2382 C   0  0  1  0  0  0  0  0  0  0  0  0
  192.1305   -7.4982   46.5818 C   0  0  0  0  0  0  0  0  0  0  0  0
  193.7943   -8.2245   47.7026 C   0  0  0  0  0  0  0  0  0  0  0  0
  192.3480   -7.8429   48.0622 C   0  0  0  0  0  0  0  0  0  0  0  0
  193.2707  -13.4514   46.3587 N   0  0  0  0  0  0  0  0  0  0  0  0
  193.3226  -14.4235   45.2596 C   0  0  2  0  0  0  0  0  0  0  0  0
  192.3873  -14.0481   44.1112 C   0  0  0  0  0  0  0  0  0  0  0  0
  192.8075  -13.8917   42.9602 O   0  0  0  0  0  0  0  0  0  0  0  0
  192.9086  -15.7644   45.8779 C   0  0  0  0  0  0  0  0  0  0  0  0
  193.3001  -15.6023   47.3318 C   0  0  2  0  0  0  0  0  0  0  0  0
  192.9616  -14.1326   47.6156 C   0  0  0  0  0  0  0  0  0  0  0  0
  194.7086  -15.7846   47.4572 O   0  0  0  0  0  0  0  0  0  0  0  0
  191.0737  -13.9679   44.4819 N   0  0  0  0  0  0  0  0  0  0  0  0
  189.9342  -14.0023   43.5477 C   0  0  2  0  0  0  0  0  0  0  0  0
  188.8336  -14.9695   44.0517 C   0  0  0  0  0  0  0  0  0  0  0  0
  187.8840  -14.6415   44.7539 O   0  0  0  0  0  0  0  0  0  0  0  0
  190.4540  -14.4379   42.1938 C   0  0  0  0  0  0  0  0  0  0  0  0
  191.8537  -15.0170   42.3264 C   0  0  0  0  0  0  0  0  0  0  0  0
  191.8879  -16.2733   42.2941 O   0  0  0  0  0  1  0  0  0  0  0  0
  192.7666  -14.1703   42.5203 O   0  0  0  0  0  0  0  0  0  0  0  0
  188.9995  -16.2885   43.6705 N   0  0  0  0  0  0  0  0  0  0  0  0
  187.8939  -17.2291   43.7543 C   0  0  2  0  0  0  0  0  0  0  0  0
  188.4673  -18.5752   44.2217 C   0  0  0  0  0  0  0  0  0  0  0  0
  187.7500  -19.5068   44.6102 O   0  0  0  0  0  0  0  0  0  0  0  0
  187.1234  -17.3268   42.4327 C   0  0  0  0  0  0  0  0  0  0  0  0
  187.7994  -18.1163   41.4517 O   0  0  0  0  0  0  0  0  0  0  0  0
  189.8433  -18.6561   44.2784 N   0  0  0  0  0  0  0  0  0  0  0  0
  190.5865  -19.2539   43.1823 C   0  0  2  0  0  0  0  0  0  0  0  0
  191.5555  -18.2461   42.5678 C   0  0  0  0  0  0  0  0  0  0  0  0
  191.5059  -17.0557   42.8775 O   0  0  0  0  0  0  0  0  0  0  0  0
  189.6695  -19.8876   42.1174 C   0  0  0  0  0  0  0  0  0  0  0  0
  190.2579  -21.1573   41.5436 C   0  0  0  0  0  0  0  0  0  0  0  0
  190.7152  -22.1815   42.3810 C   0  0  0  0  0  0  0  0  0  0  0  0
  190.3921  -21.3082   40.1543 C   0  0  0  0  0  0  0  0  0  0  0  0
  191.3018  -23.3240   41.8446 C   0  0  0  0  0  0  0  0  0  0  0  0
  190.9861  -22.4514   39.6191 C   0  0  0  0  0  0  0  0  0  0  0  0
  191.4426  -23.4591   40.4641 C   0  0  0  0  0  0  0  0  0  0  0  0
  192.4569  -18.7253   41.6459 N   0  0  0  0  0  0  0  0  0  0  0  0
  193.6539  -19.4738   42.1061 C   0  0  2  0  0  0  0  0  0  0  0  0
  193.3431  -20.8581   42.7352 C   0  0  0  0  0  0  0  0  0  0  0  0
  192.9628  -20.9860   43.8959 O   0  0  0  0  0  0  0  0  0  0  0  0
  194.4456  -18.5962   43.0999 C   0  0  0  0  0  0  0  0  0  0  0  0
  195.8632  -19.0816   43.3454 C   0  0  0  0  0  0  0  0  0  0  0  0
  196.4045  -19.9743   42.3966 C   0  0  0  0  0  0  0  0  0  0  0  0
  197.6793  -20.5011   42.5490 C   0  0  0  0  0  0  0  0  0  0  0  0
  196.6485  -18.6849   44.4604 C   0  0  0  0  0  0  0  0  0  0  0  0
  197.9598  -19.2183   44.5904 C   0  0  0  0  0  0  0  0  0  0  0  0
  198.4494  -20.1271   43.6429 C   0  0  0  0  0  0  0  0  0  0  0  0
  196.2101  -17.7911   45.4644 C   0  0  0  0  0  0  0  0  0  0  0  0
  197.0317  -17.4321   46.5323 C   0  0  0  0  0  0  0  0  0  0  0  0
  198.3081  -17.9642   46.6416 C   0  0  0  0  0  0  0  0  0  0  0  0
  198.7696  -18.8502   45.6770 C   0  0  0  0  0  0  0  0  0  0  0  0
  193.4433  -21.9243   41.8722 N   0  0  0  0  0  0  0  0  0  0  0  0
  194.7098  -22.4133   41.3036 C   0  0  2  0  0  0  0  0  0  0  0  0
  194.6691  -23.1169   39.9255 C   0  0  0  0  0  0  0  0  0  0  0  0
  194.5116  -24.3377   39.8785 O   0  0  0  0  0  0  0  0  0  0  0  0
  195.6008  -23.1913   42.2890 C   0  0  0  0  0  0  0  0  0  0  0  0
  196.7930  -23.9198   41.6440 C   0  0  0  0  0  0  0  0  0  0  0  0
  196.4568  -25.2495   40.9523 C   0  0  0  0  0  0  0  0  0  0  0  0
  197.4762  -26.3628   41.2364 C   0  0  0  0  0  0  0  0  0  0  0  0
  198.3149  -26.6090   40.0452 N   0  0  0  0  0  4  0  0  0  0  0  0
  194.7759  -22.3240   38.8137 N   0  0  0  0  0  0  0  0  0  0  0  0
  195.2622  -22.7898   37.5028 C   0  0  2  0  0  0  0  0  0  0  0  0
  195.7804  -24.2526   37.5525 C   0  0  0  0  0  0  0  0  0  0  0  0
  195.0225  -25.1841   37.2395 O   0  0  0  0  0  0  0  0  0  0  0  0
  196.0439  -21.7012   36.7641 C   0  0  0  0  0  0  0  0  0  0  0  0
  197.4159  -21.2599   37.2695 C   0  0  0  0  0  0  0  0  0  0  0  0
  197.1548  -20.8121   38.6910 C   0  0  0  0  0  0  0  0  0  0  0  0
  198.1506  -20.6540   39.4610 O   0  0  0  0  0  1  0  0  0  0  0  0
  195.9961  -20.4101   38.9910 O   0  0  0  0  0  0  0  0  0  0  0  0
  197.1297  -24.5070   37.7493 N   0  0  0  0  0  0  0  0  0  0  0  0
  198.1949  -24.6999   36.7541 C   0  0  2  0  0  0  0  0  0  0  0  0
  198.2034  -26.0400   35.9999 C   0  0  0  0  0  0  0  0  0  0  0  0
  198.8927  -27.0120   36.3088 O   0  0  0  0  0  0  0  0  0  0  0  0
  199.5088  -24.5534   37.5375 C   0  0  0  0  0  0  0  0  0  0  0  0
  199.1020  -24.8022   38.9849 C   0  0  0  0  0  0  0  0  0  0  0  0
  197.7124  -24.2010   39.0490 C   0  0  0  0  0  0  0  0  0  0  0  0
  197.3825  -26.0815   34.9072 N   0  0  0  0  0  0  0  0  0  0  0  0
  1  2  2  0
  1  3  1  0
  1  4  1  0
  4  5  1  0
  4 10  1  0
  5  6  1  6
  5  8  1  0
  6  7  2  0
  6 11  1  0
  8  9  1  0
  9 10  1  0
 11 12  1  0
 12 13  1  6
 12 24  1  0
 13 14  1  0
 14 15  1  0
 14 19  2  0
 15 16  2  0
 15 17  1  0
 16 23  1  0
 17 18  1  0
 17 20  2  0
 18 19  1  0
 20 21  1  0
 21 22  1  0
 21 23  2  0
 24 25  2  0
 24 26  1  0
 26 27  1  0
 27 28  1  0
 27 30  1  6
 28 29  2  0
 28 37  1  0
 30 31  1  0
 31 32  1  0
 32 33  1  0
 33 34  1  0
 34 35  2  0
 34 36  1  0
 37 38  1  0
 38 39  1  0
 38 41  1  1
 39 40  2  0
 39 45  1  0
 41 42  1  0
 42 43  1  1
 42 44  1  0
 45 46  1  0
 46 47  1  0
 46 49  1  6
 47 48  2  0
 47 56  1  0
 49 50  1  0
 50 51  1  0
 51 52  1  0
 52 53  1  0
 53 54  2  0
 53 55  1  0
 56 57  1  0
 57 58  1  0
 57 60  1  1
 58 59  2  0
 58 65  1  0
 60 61  1  0
 61 62  1  0
 62 63  1  0
 63 64  1  0
 65 66  1  0
 66 67  1  6
 66 68  1  0
 70 67  1  1
 68 69  2  0
 68 74  1  0
 70 71  1  0
 70 72  1  0
 71 73  1  0
 72 73  1  0
 74 75  1  0
 74 80  1  0
 75 76  1  6
 75 78  1  0
 76 77  2  0
 76 82  1  0
 78 79  1  0
 79 80  1  0
 79 81  1  6
 82 83  1  0
 83 84  1  0
 83 86  1  6
 84 85  2  0
 84 90  1  0
 86 87  1  0
 87 88  1  0
 87 89  2  0
 90 91  1  0
 91 92  1  0
 91 94  1  6
 92 93  2  0
 92 96  1  0
 94 95  1  0
 96 97  1  0
 97 98  1  0
 97100  1  6
 98 99  2  0
 98107  1  0
100101  1  0
101102  2  0
101103  1  0
102104  1  0
103105  2  0
104106  2  0
105106  1  0
107108  1  0
108109  1  0
108111  1  1
109110  2  0
109122  1  0
111112  1  0
112113  2  0
112115  1  0
113114  1  0
114117  2  0
115116  2  0
115118  1  0
116117  1  0
116121  1  0
118119  2  0
119120  1  0
120121  2  0
122123  1  0
123124  1  0
123126  1  1
124125  2  0
124131  1  0
126127  1  0
127128  1  0
128129  1  0
129130  1  0
131132  1  0
132133  1  0
132135  1  1
133134  2  0
133140  1  0
135136  1  0
136137  1  0
137138  1  0
137139  2  0
140141  1  0
140146  1  0
141142  1  1
141144  1  0
142143  2  0
142147  1  0
144145  1  0
145146  1  0
M  CHG  6  35   1  54   1  64   1  88  -1 130   1 138  -1
M  END
$$$$
