
     RDKit          3D

147155  0  0  0  0  0  0  0  0999 V2000
  187.8910  -28.7348   14.7505 C   0  0  0  0  0  0  0  0  0  0  0  0
  187.5465  -27.8550   13.9576 O   0  0  0  0  0  0  0  0  0  0  0  0
  189.1467  -29.5341   14.5150 C   0  0  0  0  0  0  0  0  0  0  0  0
  187.1584  -29.0251   15.8811 N   0  0  0  0  0  0  0  0  0  0  0  0
  185.9508  -28.3268   16.3642 C   0  0  2  0  0  0  0  0  0  0  0  0
  186.2871  -26.9798   17.0366 C   0  0  0  0  0  0  0  0  0  0  0  0
  187.4295  -26.5445   17.1092 O   0  0  0  0  0  0  0  0  0  0  0  0
  185.3596  -29.2713   17.4141 C   0  0  0  0  0  0  0  0  0  0  0  0
  185.9380  -30.6343   17.0584 C   0  0  0  0  0  0  0  0  0  0  0  0
  187.3304  -30.2972   16.5588 C   0  0  0  0  0  0  0  0  0  0  0  0
  185.1982  -26.2544   17.4595 N   0  0  0  0  0  0  0  0  0  0  0  0
  184.2096  -26.7374   18.4387 C   0  0  1  0  0  0  0  0  0  0  0  0
  184.5950  -28.1122   19.0363 C   0  0  0  0  0  0  0  0  0  0  0  0
  183.6038  -28.6526   20.0328 C   0  0  0  0  0  0  0  0  0  0  0  0
  182.4013  -28.0410   20.5104 C   0  0  0  0  0  0  0  0  0  0  0  0
  181.7354  -26.8290   20.2312 C   0  0  0  0  0  0  0  0  0  0  0  0
  181.8274  -28.9097   21.4411 C   0  0  0  0  0  0  0  0  0  0  0  0
  182.6179  -30.0355   21.4887 N   0  0  0  0  0  0  0  0  0  0  0  0
  183.6840  -29.8877   20.6469 C   0  0  0  0  0  0  0  0  0  0  0  0
  180.6454  -28.6134   22.1331 C   0  0  0  0  0  0  0  0  0  0  0  0
  180.0241  -27.3973   21.8532 C   0  0  0  0  0  0  0  0  0  0  0  0
  178.6101  -26.9522   22.7240 Cl  0  0  0  0  0  0  0  0  0  0  0  0
  180.5463  -26.5181   20.9120 C   0  0  0  0  0  0  0  0  0  0  0  0
  183.9288  -25.6919   19.5433 C   0  0  0  0  0  0  0  0  0  0  0  0
  183.0916  -25.8537   20.4303 O   0  0  0  0  0  0  0  0  0  0  0  0
  184.5882  -24.4934   19.3799 N   0  0  0  0  0  0  0  0  0  0  0  0
  183.8851  -23.2307   19.1427 C   0  0  2  0  0  0  0  0  0  0  0  0
  183.8484  -22.4007   20.4527 C   0  0  0  0  0  0  0  0  0  0  0  0
  183.7606  -21.1740   20.4648 O   0  0  0  0  0  0  0  0  0  0  0  0
  182.4590  -23.5307   18.6250 C   0  0  0  0  0  0  0  0  0  0  0  0
  182.2955  -23.1950   17.1362 C   0  0  0  0  0  0  0  0  0  0  0  0
  180.9050  -23.5378   16.6070 C   0  0  0  0  0  0  0  0  0  0  0  0
  180.5207  -24.9304   16.8939 N   0  0  0  0  0  0  0  0  0  0  0  0
  181.0016  -25.9948   16.2338 C   0  0  0  0  0  0  0  0  0  0  0  0
  180.7086  -26.2183   14.9497 N   0  0  0  0  0  4  0  0  0  0  0  0
  181.7988  -26.8607   16.8652 N   0  0  0  0  0  0  0  0  0  0  0  0
  183.9902  -23.1477   21.6058 N   0  0  0  0  0  0  0  0  0  0  0  0
  183.1125  -22.9718   22.7611 C   0  0  2  0  0  0  0  0  0  0  0  0
  183.7190  -23.6667   24.0101 C   0  0  0  0  0  0  0  0  0  0  0  0
  183.1849  -23.5916   25.1166 O   0  0  0  0  0  0  0  0  0  0  0  0
  181.6118  -23.1759   22.4516 C   0  0  0  0  0  0  0  0  0  0  0  0
  180.7428  -24.1003   23.3243 C   0  0  1  0  0  0  0  0  0  0  0  0
  180.7749  -25.5459   22.8364 C   0  0  0  0  0  0  0  0  0  0  0  0
  181.0117  -24.0356   24.8278 C   0  0  0  0  0  0  0  0  0  0  0  0
  184.8717  -24.4285   23.8086 N   0  0  0  0  0  0  0  0  0  0  0  0
  185.5762  -24.9051   25.0049 C   0  0  2  0  0  0  0  0  0  0  0  0
  185.8563  -23.6731   25.9017 C   0  0  0  0  0  0  0  0  0  0  0  0
  185.2733  -22.5984   25.7293 O   0  0  0  0  0  0  0  0  0  0  0  0
  186.8871  -25.6114   24.6313 C   0  0  0  0  0  0  0  0  0  0  0  0
  187.4240  -25.2834   23.2321 C   0  0  0  0  0  0  0  0  0  0  0  0
  188.7505  -25.9686   22.8860 C   0  0  0  0  0  0  0  0  0  0  0  0
  189.8573  -25.4020   23.6835 N   0  0  0  0  0  0  0  0  0  0  0  0
  190.8102  -24.5874   23.2032 C   0  0  0  0  0  0  0  0  0  0  0  0
  190.5673  -23.7207   22.2186 N   0  0  0  0  0  4  0  0  0  0  0  0
  192.0434  -24.6377   23.7185 N   0  0  0  0  0  0  0  0  0  0  0  0
  186.7927  -23.8644   26.9002 N   0  0  0  0  0  0  0  0  0  0  0  0
  187.0278  -22.7506   27.8119 C   0  0  2  0  0  0  0  0  0  0  0  0
  185.7511  -22.0798   28.3819 C   0  0  0  0  0  0  0  0  0  0  0  0
  184.9241  -22.6692   29.0683 O   0  0  0  0  0  0  0  0  0  0  0  0
  187.9409  -21.6810   27.1899 C   0  0  0  0  0  0  0  0  0  0  0  0
  188.6878  -22.0470   25.8911 C   0  0  0  0  0  0  0  0  0  0  0  0
  190.0515  -22.7205   26.0869 C   0  0  0  0  0  0  0  0  0  0  0  0
  191.1983  -21.8822   25.5106 C   0  0  0  0  0  0  0  0  0  0  0  0
  190.7859  -21.1725   24.2950 N   0  0  0  0  0  4  0  0  0  0  0  0
  185.5619  -20.7899   27.9200 N   0  0  0  0  0  0  0  0  0  0  0  0
  185.4583  -19.6309   28.8037 C   0  0  1  0  0  0  0  0  0  0  0  0
  186.5829  -19.5512   29.8468 C   0  0  0  0  0  0  0  0  0  0  0  0
  185.3712  -18.3993   27.8731 C   0  0  0  0  0  0  0  0  0  0  0  0
  186.0553  -18.3023   26.8458 O   0  0  0  0  0  0  0  0  0  0  0  0
  186.3945  -20.4002   31.1094 C   0  0  1  0  0  0  0  0  0  0  0  0
  185.9218  -19.5761   32.3413 C   0  0  0  0  0  0  0  0  0  0  0  0
  185.0916  -21.2312   31.2812 C   0  0  0  0  0  0  0  0  0  0  0  0
  184.4883  -20.0348   32.0373 C   0  0  0  0  0  0  0  0  0  0  0  0
  184.4027  -17.4482   28.1439 N   0  0  0  0  0  0  0  0  0  0  0  0
  184.3690  -16.2194   27.3410 C   0  0  2  0  0  0  0  0  0  0  0  0
  185.5260  -15.2789   27.6748 C   0  0  0  0  0  0  0  0  0  0  0  0
  186.0083  -15.2254   28.8107 O   0  0  0  0  0  0  0  0  0  0  0  0
  183.0237  -15.5567   27.6615 C   0  0  0  0  0  0  0  0  0  0  0  0
  182.1550  -16.7304   28.0629 C   0  0  2  0  0  0  0  0  0  0  0  0
  183.1286  -17.6270   28.8397 C   0  0  0  0  0  0  0  0  0  0  0  0
  181.7305  -17.4180   26.8883 O   0  0  0  0  0  0  0  0  0  0  0  0
  185.9853  -14.5755   26.5961 N   0  0  0  0  0  0  0  0  0  0  0  0
  187.3101  -13.9347   26.5141 C   0  0  2  0  0  0  0  0  0  0  0  0
  188.1311  -14.1931   27.8024 C   0  0  0  0  0  0  0  0  0  0  0  0
  188.0205  -15.1853   28.5136 O   0  0  0  0  0  0  0  0  0  0  0  0
  187.0980  -12.4508   26.3001 C   0  0  0  0  0  0  0  0  0  0  0  0
  188.2376  -11.6590   26.9217 C   0  0  0  0  0  0  0  0  0  0  0  0
  188.8532  -10.9292   26.1039 O   0  0  0  0  0  1  0  0  0  0  0  0
  188.4505  -11.8956   28.1410 O   0  0  0  0  0  0  0  0  0  0  0  0
  189.0197  -13.1877   28.1371 N   0  0  0  0  0  0  0  0  0  0  0  0
  189.6853  -13.1863   29.4298 C   0  0  2  0  0  0  0  0  0  0  0  0
  189.5739  -11.7665   30.0051 C   0  0  0  0  0  0  0  0  0  0  0  0
  188.7905  -10.9222   29.5503 O   0  0  0  0  0  0  0  0  0  0  0  0
  191.1309  -13.6862   29.3304 C   0  0  0  0  0  0  0  0  0  0  0  0
  191.2556  -14.8763   28.5491 O   0  0  0  0  0  0  0  0  0  0  0  0
  190.4725  -11.4491   31.0025 N   0  0  0  0  0  0  0  0  0  0  0  0
  190.4810  -12.2013   32.2456 C   0  0  2  0  0  0  0  0  0  0  0  0
  190.6936  -11.2751   33.4412 C   0  0  0  0  0  0  0  0  0  0  0  0
  191.7201  -10.6033   33.5423 O   0  0  0  0  0  0  0  0  0  0  0  0
  191.4971  -13.3605   32.2327 C   0  0  0  0  0  0  0  0  0  0  0  0
  191.4754  -14.1498   33.5226 C   0  0  0  0  0  0  0  0  0  0  0  0
  190.6636  -15.2818   33.6605 C   0  0  0  0  0  0  0  0  0  0  0  0
  192.2433  -13.7299   34.6203 C   0  0  0  0  0  0  0  0  0  0  0  0
  190.6118  -15.9714   34.8683 C   0  0  0  0  0  0  0  0  0  0  0  0
  192.1852  -14.4189   35.8319 C   0  0  0  0  0  0  0  0  0  0  0  0
  191.3682  -15.5391   35.9568 C   0  0  0  0  0  0  0  0  0  0  0  0
  189.7052  -11.2493   34.3973 N   0  0  0  0  0  0  0  0  0  0  0  0
  188.8402  -12.4399   34.5953 C   0  0  2  0  0  0  0  0  0  0  0  0
  187.8723  -12.7334   33.4182 C   0  0  0  0  0  0  0  0  0  0  0  0
  187.6780  -13.8678   32.9897 O   0  0  0  0  0  0  0  0  0  0  0  0
  188.0515  -12.2762   35.9129 C   0  0  0  0  0  0  0  0  0  0  0  0
  188.8767  -12.5588   37.1556 C   0  0  0  0  0  0  0  0  0  0  0  0
  188.9513  -13.9025   37.5792 C   0  0  0  0  0  0  0  0  0  0  0  0
  189.6525  -14.2591   38.7224 C   0  0  0  0  0  0  0  0  0  0  0  0
  189.5606  -11.5544   37.8911 C   0  0  0  0  0  0  0  0  0  0  0  0
  190.2910  -11.9400   39.0482 C   0  0  0  0  0  0  0  0  0  0  0  0
  190.3145  -13.2810   39.4538 C   0  0  0  0  0  0  0  0  0  0  0  0
  189.5609  -10.1818   37.5522 C   0  0  0  0  0  0  0  0  0  0  0  0
  190.2598   -9.2426   38.3097 C   0  0  0  0  0  0  0  0  0  0  0  0
  190.9661   -9.6389   39.4358 C   0  0  0  0  0  0  0  0  0  0  0  0
  190.9827  -10.9783   39.8021 C   0  0  0  0  0  0  0  0  0  0  0  0
  187.1838  -11.6406   32.9457 N   0  0  0  0  0  0  0  0  0  0  0  0
  185.7784  -11.6724   32.5095 C   0  0  2  0  0  0  0  0  0  0  0  0
  185.3683  -12.7134   31.4400 C   0  0  0  0  0  0  0  0  0  0  0  0
  184.5616  -13.5953   31.7381 O   0  0  0  0  0  0  0  0  0  0  0  0
  185.1705  -10.2939   32.1927 C   0  0  0  0  0  0  0  0  0  0  0  0
  183.7083  -10.1158   32.6380 C   0  0  0  0  0  0  0  0  0  0  0  0
  183.2008  -11.1442   33.6599 C   0  0  0  0  0  0  0  0  0  0  0  0
  182.6438  -10.5095   34.9430 C   0  0  0  0  0  0  0  0  0  0  0  0
  181.6407   -9.4762   34.6127 N   0  0  0  0  0  4  0  0  0  0  0  0
  185.9073  -12.5720   30.1888 N   0  0  0  0  0  0  0  0  0  0  0  0
  185.6902  -11.4045   29.3160 C   0  0  2  0  0  0  0  0  0  0  0  0
  184.2115  -11.2766   28.8603 C   0  0  0  0  0  0  0  0  0  0  0  0
  183.4365  -12.2338   29.0124 O   0  0  0  0  0  0  0  0  0  0  0  0
  186.8402  -11.2107   28.3251 C   0  0  0  0  0  0  0  0  0  0  0  0
  186.5538  -11.0515   26.8334 C   0  0  0  0  0  0  0  0  0  0  0  0
  186.5461   -9.5535   26.6207 C   0  0  0  0  0  0  0  0  0  0  0  0
  185.9850   -8.8275   27.4968 O   0  0  0  0  0  1  0  0  0  0  0  0
  187.2734   -9.0727   25.7073 O   0  0  0  0  0  0  0  0  0  0  0  0
  183.7065  -10.0442   28.4724 N   0  0  0  0  0  0  0  0  0  0  0  0
  182.3515   -9.4989   28.6419 C   0  0  2  0  0  0  0  0  0  0  0  0
  181.2556  -10.0704   27.7267 C   0  0  0  0  0  0  0  0  0  0  0  0
  181.3785  -10.2471   26.5147 O   0  0  0  0  0  0  0  0  0  0  0  0
  182.4894   -7.9905   28.3827 C   0  0  0  0  0  0  0  0  0  0  0  0
  183.7851   -7.8721   27.5895 C   0  0  0  0  0  0  0  0  0  0  0  0
  184.6448   -8.9664   28.1896 C   0  0  0  0  0  0  0  0  0  0  0  0
  180.0803  -10.3614   28.3622 N   0  0  0  0  0  0  0  0  0  0  0  0
  1  2  2  0
  1  3  1  0
  1  4  1  0
  4  5  1  0
  4 10  1  0
  5  6  1  1
  5  8  1  0
  6  7  2  0
  6 11  1  0
  8  9  1  0
  9 10  1  0
 11 12  1  0
 12 13  1  1
 12 24  1  0
 13 14  1  0
 14 15  1  0
 14 19  2  0
 15 16  2  0
 15 17  1  0
 16 23  1  0
 17 18  1  0
 17 20  2  0
 18 19  1  0
 20 21  1  0
 21 22  1  0
 21 23  2  0
 24 25  2  0
 24 26  1  0
 26 27  1  0
 27 28  1  0
 27 30  1  1
 28 29  2  0
 28 37  1  0
 30 31  1  0
 31 32  1  0
 32 33  1  0
 33 34  1  0
 34 35  2  0
 34 36  1  0
 37 38  1  0
 38 39  1  0
 38 41  1  6
 39 40  2  0
 39 45  1  0
 41 42  1  0
 42 43  1  6
 42 44  1  0
 45 46  1  0
 46 47  1  0
 46 49  1  6
 47 48  2  0
 47 56  1  0
 49 50  1  0
 50 51  1  0
 51 52  1  0
 52 53  1  0
 53 54  2  0
 53 55  1  0
 56 57  1  0
 57 58  1  0
 57 60  1  6
 58 59  2  0
 58 65  1  0
 60 61  1  0
 61 62  1  0
 62 63  1  0
 63 64  1  0
 65 66  1  0
 66 67  1  1
 66 68  1  0
 70 67  1  6
 68 69  2  0
 68 74  1  0
 70 71  1  0
 70 72  1  0
 71 73  1  0
 72 73  1  0
 74 75  1  0
 74 80  1  0
 75 76  1  1
 75 78  1  0
 76 77  2  0
 76 82  1  0
 78 79  1  0
 79 80  1  0
 79 81  1  6
 82 83  1  0
 83 84  1  0
 83 86  1  1
 84 85  2  0
 84 90  1  0
 86 87  1  0
 87 88  1  0
 87 89  2  0
 90 91  1  0
 91 92  1  0
 91 94  1  6
 92 93  2  0
 92 96  1  0
 94 95  1  0
 96 97  1  0
 97 98  1  0
 97100  1  6
 98 99  2  0
 98107  1  0
100101  1  0
101102  2  0
101103  1  0
102104  1  0
103105  2  0
104106  2  0
105106  1  0
107108  1  0
108109  1  0
108111  1  1
109110  2  0
109122  1  0
111112  1  0
112113  2  0
112115  1  0
113114  1  0
114117  2  0
115116  2  0
115118  1  0
116117  1  0
116121  1  0
118119  2  0
119120  1  0
120121  2  0
122123  1  0
123124  1  0
123126  1  6
124125  2  0
124131  1  0
126127  1  0
127128  1  0
128129  1  0
129130  1  0
131132  1  0
132133  1  0
132135  1  6
133134  2  0
133140  1  0
135136  1  0
136137  1  0
137138  1  0
137139  2  0
140141  1  0
140146  1  0
141142  1  6
141144  1  0
142143  2  0
142147  1  0
144145  1  0
145146  1  0
M  CHG  6  35   1  54   1  64   1  88  -1 130   1 138  -1
M  END
$$$$
