
     RDKit          3D

147155  0  0  0  0  0  0  0  0999 V2000
  197.4899  -11.2792   30.1077 C   0  0  0  0  0  0  0  0  0  0  0  0
  197.9041  -10.1689   30.4496 O   0  0  0  0  0  0  0  0  0  0  0  0
  197.4280  -11.6626   28.6515 C   0  0  0  0  0  0  0  0  0  0  0  0
  197.0730  -12.2170   31.0276 N   0  0  0  0  0  0  0  0  0  0  0  0
  196.5783  -13.5797   30.7492 C   0  0  2  0  0  0  0  0  0  0  0  0
  195.1264  -13.5768   30.2278 C   0  0  0  0  0  0  0  0  0  0  0  0
  194.3469  -12.6586   30.4490 O   0  0  0  0  0  0  0  0  0  0  0  0
  196.6157  -14.2830   32.1087 C   0  0  0  0  0  0  0  0  0  0  0  0
  197.6216  -13.4766   32.9189 C   0  0  0  0  0  0  0  0  0  0  0  0
  197.3947  -12.0570   32.4339 C   0  0  0  0  0  0  0  0  0  0  0  0
  194.8011  -14.6337   29.4106 N   0  0  0  0  0  0  0  0  0  0  0  0
  193.4579  -14.8687   28.8540 C   0  0  1  0  0  0  0  0  0  0  0  0
  193.4006  -16.1359   27.9672 C   0  0  0  0  0  0  0  0  0  0  0  0
  192.1017  -16.3137   27.2264 C   0  0  0  0  0  0  0  0  0  0  0  0
  191.8415  -17.1152   26.0698 C   0  0  0  0  0  0  0  0  0  0  0  0
  192.6218  -17.9850   25.2792 C   0  0  0  0  0  0  0  0  0  0  0  0
  190.4979  -16.9428   25.7309 C   0  0  0  0  0  0  0  0  0  0  0  0
  189.9423  -16.1126   26.6779 N   0  0  0  0  0  0  0  0  0  0  0  0
  190.8983  -15.7322   27.5770 C   0  0  0  0  0  0  0  0  0  0  0  0
  189.9049  -17.5637   24.6233 C   0  0  0  0  0  0  0  0  0  0  0  0
  190.7081  -18.3980   23.8475 C   0  0  0  0  0  0  0  0  0  0  0  0
  190.0505  -19.1295   22.4375 Cl  0  0  0  0  0  0  0  0  0  0  0  0
  192.0421  -18.6200   24.1679 C   0  0  0  0  0  0  0  0  0  0  0  0
  192.3702  -14.8901   29.9533 C   0  0  0  0  0  0  0  0  0  0  0  0
  191.5133  -14.0154   30.0736 O   0  0  0  0  0  0  0  0  0  0  0  0
  192.5163  -15.8937   30.8857 N   0  0  0  0  0  0  0  0  0  0  0  0
  191.3741  -16.5802   31.4931 C   0  0  2  0  0  0  0  0  0  0  0  0
  191.5127  -18.1106   31.2802 C   0  0  0  0  0  0  0  0  0  0  0  0
  192.5825  -18.7070   31.3922 O   0  0  0  0  0  0  0  0  0  0  0  0
  190.0650  -16.0406   30.8711 C   0  0  0  0  0  0  0  0  0  0  0  0
  190.0008  -14.5070   30.8846 C   0  0  0  0  0  0  0  0  0  0  0  0
  189.2347  -13.9628   32.0880 C   0  0  0  0  0  0  0  0  0  0  0  0
  189.8029  -12.7017   32.5939 N   0  0  0  0  0  0  0  0  0  0  0  0
  191.0289  -12.2520   32.2863 C   0  0  0  0  0  0  0  0  0  0  0  0
  192.0199  -13.0828   31.9506 N   0  0  0  0  0  4  0  0  0  0  0  0
  191.2780  -10.9400   32.3091 N   0  0  0  0  0  0  0  0  0  0  0  0
  190.3474  -18.7402   30.8882 N   0  0  0  0  0  0  0  0  0  0  0  0
  189.9226  -20.0176   31.4571 C   0  0  2  0  0  0  0  0  0  0  0  0
  188.5700  -20.4610   30.8370 C   0  0  0  0  0  0  0  0  0  0  0  0
  187.4977  -19.9924   31.2186 O   0  0  0  0  0  0  0  0  0  0  0  0
  190.1081  -20.1206   32.9883 C   0  0  0  0  0  0  0  0  0  0  0  0
  191.5090  -20.0393   33.6225 C   0  0  1  0  0  0  0  0  0  0  0  0
  191.5542  -19.0558   34.7884 C   0  0  0  0  0  0  0  0  0  0  0  0
  192.1319  -21.3764   34.0243 C   0  0  0  0  0  0  0  0  0  0  0  0
  188.6305  -21.3780   29.7857 N   0  0  0  0  0  0  0  0  0  0  0  0
  187.3762  -21.6735   29.0827 C   0  0  2  0  0  0  0  0  0  0  0  0
  186.8261  -20.3348   28.5298 C   0  0  0  0  0  0  0  0  0  0  0  0
  185.9950  -19.6674   29.1531 O   0  0  0  0  0  0  0  0  0  0  0  0
  186.3557  -22.3306   30.0227 C   0  0  0  0  0  0  0  0  0  0  0  0
  185.4948  -21.3513   30.8310 C   0  0  0  0  0  0  0  0  0  0  0  0
  185.3790  -21.6906   32.3210 C   0  0  0  0  0  0  0  0  0  0  0  0
  183.9830  -21.5518   32.7836 N   0  0  0  0  0  0  0  0  0  0  0  0
  183.4527  -22.2061   33.8291 C   0  0  0  0  0  0  0  0  0  0  0  0
  184.1708  -22.5044   34.9130 N   0  0  0  0  0  4  0  0  0  0  0  0
  182.1677  -22.5755   33.7942 N   0  0  0  0  0  0  0  0  0  0  0  0
  187.3315  -19.9445   27.3039 N   0  0  0  0  0  0  0  0  0  0  0  0
  187.0474  -18.5806   26.8727 C   0  0  2  0  0  0  0  0  0  0  0  0
  185.6751  -18.0155   27.3224 C   0  0  0  0  0  0  0  0  0  0  0  0
  185.5422  -17.1917   28.2202 O   0  0  0  0  0  0  0  0  0  0  0  0
  187.2027  -18.4141   25.3518 C   0  0  0  0  0  0  0  0  0  0  0  0
  188.6296  -18.4698   24.7693 C   0  0  0  0  0  0  0  0  0  0  0  0
  188.8162  -19.4230   23.5826 C   0  0  0  0  0  0  0  0  0  0  0  0
  190.2874  -19.5541   23.1720 C   0  0  0  0  0  0  0  0  0  0  0  0
  190.6071  -18.6827   22.0362 N   0  0  0  0  0  4  0  0  0  0  0  0
  184.6030  -18.6392   26.7103 N   0  0  0  0  0  0  0  0  0  0  0  0
  184.1628  -19.9903   27.0505 C   0  0  1  0  0  0  0  0  0  0  0  0
  184.7407  -21.0748   26.1291 C   0  0  0  0  0  0  0  0  0  0  0  0
  184.5087  -20.1810   28.5453 C   0  0  0  0  0  0  0  0  0  0  0  0
  185.6502  -19.9905   28.9851 O   0  0  0  0  0  0  0  0  0  0  0  0
  183.8233  -21.5624   25.0016 C   0  0  1  0  0  0  0  0  0  0  0  0
  184.0286  -23.0629   24.6456 C   0  0  0  0  0  0  0  0  0  0  0  0
  182.3495  -21.9364   25.3267 C   0  0  0  0  0  0  0  0  0  0  0  0
  182.8156  -23.3886   25.5290 C   0  0  0  0  0  0  0  0  0  0  0  0
  183.4718  -20.4476   29.4226 N   0  0  0  0  0  0  0  0  0  0  0  0
  182.3579  -21.2910   28.9714 C   0  0  2  0  0  0  0  0  0  0  0  0
  181.4562  -20.5706   27.9700 C   0  0  0  0  0  0  0  0  0  0  0  0
  181.5246  -20.7989   26.7580 O   0  0  0  0  0  0  0  0  0  0  0  0
  181.5764  -21.6521   30.2404 C   0  0  0  0  0  0  0  0  0  0  0  0
  182.6315  -21.5677   31.3235 C   0  0  2  0  0  0  0  0  0  0  0  0
  183.4788  -20.3664   30.8830 C   0  0  0  0  0  0  0  0  0  0  0  0
  183.4378  -22.7428   31.2799 O   0  0  0  0  0  0  0  0  0  0  0  0
  180.5593  -19.7216   28.5567 N   0  0  0  0  0  0  0  0  0  0  0  0
  179.5682  -18.9118   27.8257 C   0  0  2  0  0  0  0  0  0  0  0  0
  180.2660  -17.8497   26.9393 C   0  0  0  0  0  0  0  0  0  0  0  0
  181.1765  -18.0853   26.1532 O   0  0  0  0  0  0  0  0  0  0  0  0
  178.6629  -18.2515   28.8442 C   0  0  0  0  0  0  0  0  0  0  0  0
  177.3096  -17.9397   28.2250 C   0  0  0  0  0  0  0  0  0  0  0  0
  177.3087  -17.9666   26.9682 O   0  0  0  0  0  1  0  0  0  0  0  0
  176.4045  -17.6306   29.0456 O   0  0  0  0  0  0  0  0  0  0  0  0
  179.8029  -16.5574   27.1067 N   0  0  0  0  0  0  0  0  0  0  0  0
  179.6893  -15.9767   28.4349 C   0  0  2  0  0  0  0  0  0  0  0  0
  180.9683  -15.1672   28.6959 C   0  0  0  0  0  0  0  0  0  0  0  0
  180.9772  -14.1375   29.3835 O   0  0  0  0  0  0  0  0  0  0  0  0
  179.4191  -17.0411   29.5043 C   0  0  0  0  0  0  0  0  0  0  0  0
  178.2702  -17.8405   29.2159 O   0  0  0  0  0  0  0  0  0  0  0  0
  182.0995  -15.5997   28.0351 N   0  0  0  0  0  0  0  0  0  0  0  0
  183.4104  -15.4206   28.6356 C   0  0  2  0  0  0  0  0  0  0  0  0
  183.7380  -16.5736   29.5821 C   0  0  0  0  0  0  0  0  0  0  0  0
  184.5740  -17.4229   29.2739 O   0  0  0  0  0  0  0  0  0  0  0  0
  183.5663  -14.0516   29.3269 C   0  0  0  0  0  0  0  0  0  0  0  0
  184.8334  -13.9709   30.1488 C   0  0  0  0  0  0  0  0  0  0  0  0
  185.0319  -12.9321   31.0658 C   0  0  0  0  0  0  0  0  0  0  0  0
  185.8520  -14.9206   29.9710 C   0  0  0  0  0  0  0  0  0  0  0  0
  186.2228  -12.8378   31.7800 C   0  0  0  0  0  0  0  0  0  0  0  0
  187.0473  -14.8206   30.6833 C   0  0  0  0  0  0  0  0  0  0  0  0
  187.2337  -13.7783   31.5870 C   0  0  0  0  0  0  0  0  0  0  0  0
  183.0433  -16.6273   30.7681 N   0  0  0  0  0  0  0  0  0  0  0  0
  183.1357  -15.4981   31.7279 C   0  0  2  0  0  0  0  0  0  0  0  0
  183.0908  -14.0923   31.0719 C   0  0  0  0  0  0  0  0  0  0  0  0
  183.8363  -13.7687   30.1512 O   0  0  0  0  0  0  0  0  0  0  0  0
  184.4192  -15.6578   32.5717 C   0  0  0  0  0  0  0  0  0  0  0  0
  184.7177  -14.4619   33.4582 C   0  0  0  0  0  0  0  0  0  0  0  0
  185.3867  -13.3745   32.8578 C   0  0  0  0  0  0  0  0  0  0  0  0
  185.7346  -12.2492   33.5917 C   0  0  0  0  0  0  0  0  0  0  0  0
  184.3607  -14.3918   34.8312 C   0  0  0  0  0  0  0  0  0  0  0  0
  184.7067  -13.2233   35.5631 C   0  0  0  0  0  0  0  0  0  0  0  0
  185.3992  -12.1779   34.9378 C   0  0  0  0  0  0  0  0  0  0  0  0
  183.6827  -15.4171   35.5300 C   0  0  0  0  0  0  0  0  0  0  0  0
  183.3511  -15.2863   36.8781 C   0  0  0  0  0  0  0  0  0  0  0  0
  183.6981  -14.1382   37.5749 C   0  0  0  0  0  0  0  0  0  0  0  0
  184.3703  -13.1132   36.9220 C   0  0  0  0  0  0  0  0  0  0  0  0
  182.0976  -13.2641   31.5401 N   0  0  0  0  0  0  0  0  0  0  0  0
  181.9664  -11.8429   31.1801 C   0  0  2  0  0  0  0  0  0  0  0  0
  183.2398  -10.9632   31.1996 C   0  0  0  0  0  0  0  0  0  0  0  0
  184.2987  -11.4477   31.6011 O   0  0  0  0  0  0  0  0  0  0  0  0
  180.7878  -11.1143   31.8512 C   0  0  0  0  0  0  0  0  0  0  0  0
  179.4762  -11.9178   31.9002 C   0  0  0  0  0  0  0  0  0  0  0  0
  178.7335  -12.0490   30.5621 C   0  0  0  0  0  0  0  0  0  0  0  0
  177.4749  -12.9259   30.6434 C   0  0  0  0  0  0  0  0  0  0  0  0
  177.7737  -14.2987   30.1862 N   0  0  0  0  0  4  0  0  0  0  0  0
  183.1243   -9.6830   30.7266 N   0  0  0  0  0  0  0  0  0  0  0  0
  184.0759   -8.5972   31.0226 C   0  0  2  0  0  0  0  0  0  0  0  0
  183.7331   -7.8576   32.3440 C   0  0  0  0  0  0  0  0  0  0  0  0
  182.5993   -7.3788   32.5041 O   0  0  0  0  0  0  0  0  0  0  0  0
  184.4662   -7.8209   29.7629 C   0  0  0  0  0  0  0  0  0  0  0  0
  185.8868   -7.2855   29.5967 C   0  0  0  0  0  0  0  0  0  0  0  0
  185.7070   -5.7843   29.5380 C   0  0  0  0  0  0  0  0  0  0  0  0
  184.9159   -5.3100   28.6670 O   0  0  0  0  0  1  0  0  0  0  0  0
  186.1739   -5.0860   30.4808 O   0  0  0  0  0  0  0  0  0  0  0  0
  184.6127   -7.9028   33.4157 N   0  0  0  0  0  0  0  0  0  0  0  0
  184.3224   -7.9361   34.8568 C   0  0  2  0  0  0  0  0  0  0  0  0
  183.8421   -6.6229   35.4968 C   0  0  0  0  0  0  0  0  0  0  0  0
  183.6382   -6.4651   36.7005 O   0  0  0  0  0  0  0  0  0  0  0  0
  185.6377   -8.3703   35.5222 C   0  0  0  0  0  0  0  0  0  0  0  0
  186.6996   -8.0522   34.4767 C   0  0  0  0  0  0  0  0  0  0  0  0
  185.9813   -8.3392   33.1735 C   0  0  0  0  0  0  0  0  0  0  0  0
  183.6246   -5.6054   34.6096 N   0  0  0  0  0  0  0  0  0  0  0  0
  1  2  2  0
  1  3  1  0
  1  4  1  0
  4  5  1  0
  4 10  1  0
  5  6  1  1
  5  8  1  0
  6  7  2  0
  6 11  1  0
  8  9  1  0
  9 10  1  0
 11 12  1  0
 12 13  1  1
 12 24  1  0
 13 14  1  0
 14 15  1  0
 14 19  2  0
 15 16  2  0
 15 17  1  0
 16 23  1  0
 17 18  1  0
 17 20  2  0
 18 19  1  0
 20 21  1  0
 21 22  1  0
 21 23  2  0
 24 25  2  0
 24 26  1  0
 26 27  1  0
 27 28  1  0
 27 30  1  6
 28 29  2  0
 28 37  1  0
 30 31  1  0
 31 32  1  0
 32 33  1  0
 33 34  1  0
 34 35  2  0
 34 36  1  0
 37 38  1  0
 38 39  1  0
 38 41  1  1
 39 40  2  0
 39 45  1  0
 41 42  1  0
 42 43  1  1
 42 44  1  0
 45 46  1  0
 46 47  1  0
 46 49  1  1
 47 48  2  0
 47 56  1  0
 49 50  1  0
 50 51  1  0
 51 52  1  0
 52 53  1  0
 53 54  2  0
 53 55  1  0
 56 57  1  0
 57 58  1  0
 57 60  1  6
 58 59  2  0
 58 65  1  0
 60 61  1  0
 61 62  1  0
 62 63  1  0
 63 64  1  0
 65 66  1  0
 66 67  1  6
 66 68  1  0
 70 67  1  1
 68 69  2  0
 68 74  1  0
 70 71  1  0
 70 72  1  0
 71 73  1  0
 72 73  1  0
 74 75  1  0
 74 80  1  0
 75 76  1  6
 75 78  1  0
 76 77  2  0
 76 82  1  0
 78 79  1  0
 79 80  1  0
 79 81  1  6
 82 83  1  0
 83 84  1  0
 83 86  1  1
 84 85  2  0
 84 90  1  0
 86 87  1  0
 87 88  1  0
 87 89  2  0
 90 91  1  0
 91 92  1  0
 91 94  1  1
 92 93  2  0
 92 96  1  0
 94 95  1  0
 96 97  1  0
 97 98  1  0
 97100  1  1
 98 99  2  0
 98107  1  0
100101  1  0
101102  2  0
101103  1  0
102104  1  0
103105  2  0
104106  2  0
105106  1  0
107108  1  0
108109  1  0
108111  1  6
109110  2  0
109122  1  0
111112  1  0
112113  2  0
112115  1  0
113114  1  0
114117  2  0
115116  2  0
115118  1  0
116117  1  0
116121  1  0
118119  2  0
119120  1  0
120121  2  0
122123  1  0
123124  1  0
123126  1  1
124125  2  0
124131  1  0
126127  1  0
127128  1  0
128129  1  0
129130  1  0
131132  1  0
132133  1  0
132135  1  6
133134  2  0
133140  1  0
135136  1  0
136137  1  0
137138  1  0
137139  2  0
140141  1  0
140146  1  0
141142  1  1
141144  1  0
142143  2  0
142147  1  0
144145  1  0
145146  1  0
M  CHG  6  35   1  54   1  64   1  88  -1 130   1 138  -1
M  END
$$$$
