
     RDKit          3D

147155  0  0  0  0  0  0  0  0999 V2000
  170.9292  -18.8512   13.7771 C   0  0  0  0  0  0  0  0  0  0  0  0
  169.7018  -18.9655   13.8217 O   0  0  0  0  0  0  0  0  0  0  0  0
  171.8233  -19.9368   14.3183 C   0  0  0  0  0  0  0  0  0  0  0  0
  171.5388  -17.7419   13.2319 N   0  0  0  0  0  0  0  0  0  0  0  0
  171.0047  -16.8609   12.1746 C   0  0  2  0  0  0  0  0  0  0  0  0
  171.1151  -17.4989   10.7744 C   0  0  0  0  0  0  0  0  0  0  0  0
  170.6799  -18.6151   10.5208 O   0  0  0  0  0  0  0  0  0  0  0  0
  171.8993  -15.6195   12.2260 C   0  0  0  0  0  0  0  0  0  0  0  0
  172.4938  -15.6452   13.6277 C   0  0  0  0  0  0  0  0  0  0  0  0
  172.6725  -17.1273   13.8982 C   0  0  0  0  0  0  0  0  0  0  0  0
  171.6479  -16.6823    9.8049 N   0  0  0  0  0  0  0  0  0  0  0  0
  172.6774  -15.6594   10.0564 C   0  0  1  0  0  0  0  0  0  0  0  0
  172.1288  -14.4560   10.8604 C   0  0  0  0  0  0  0  0  0  0  0  0
  171.4582  -13.4037   10.0176 C   0  0  0  0  0  0  0  0  0  0  0  0
  171.3556  -13.3403    8.5916 C   0  0  0  0  0  0  0  0  0  0  0  0
  171.7765  -14.1768    7.5364 C   0  0  0  0  0  0  0  0  0  0  0  0
  170.6658  -12.1695    8.2702 C   0  0  0  0  0  0  0  0  0  0  0  0
  170.3092  -11.5683    9.4559 N   0  0  0  0  0  0  0  0  0  0  0  0
  170.7810  -12.3031   10.5069 C   0  0  0  0  0  0  0  0  0  0  0  0
  170.4086  -11.7736    6.9506 C   0  0  0  0  0  0  0  0  0  0  0  0
  170.8586  -12.6091    5.9295 C   0  0  0  0  0  0  0  0  0  0  0  0
  170.6319  -12.1372    4.2919 Cl  0  0  0  0  0  0  0  0  0  0  0  0
  171.5225  -13.7980    6.2074 C   0  0  0  0  0  0  0  0  0  0  0  0
  173.9418  -16.2588   10.7150 C   0  0  0  0  0  0  0  0  0  0  0  0
  174.7030  -17.0332   10.1365 O   0  0  0  0  0  0  0  0  0  0  0  0
  174.0805  -15.9739   12.0558 N   0  0  0  0  0  0  0  0  0  0  0  0
  174.4324  -14.6401   12.5478 C   0  0  2  0  0  0  0  0  0  0  0  0
  173.5577  -14.2920   13.7807 C   0  0  0  0  0  0  0  0  0  0  0  0
  172.3602  -14.0244   13.6968 O   0  0  0  0  0  0  0  0  0  0  0  0
  174.2397  -13.6098   11.4106 C   0  0  0  0  0  0  0  0  0  0  0  0
  175.4114  -12.6231   11.3118 C   0  0  0  0  0  0  0  0  0  0  0  0
  176.7634  -13.2930   11.5454 C   0  0  0  0  0  0  0  0  0  0  0  0
  176.9366  -13.7417   12.9375 N   0  0  0  0  0  0  0  0  0  0  0  0
  178.0226  -13.4831   13.6816 C   0  0  0  0  0  0  0  0  0  0  0  0
  178.1710  -12.3258   14.3323 N   0  0  0  0  0  4  0  0  0  0  0  0
  178.9876  -14.4006   13.7857 N   0  0  0  0  0  0  0  0  0  0  0  0
  174.2493  -14.2414   14.9753 N   0  0  0  0  0  0  0  0  0  0  0  0
  174.8387  -15.4315   15.5854 C   0  0  2  0  0  0  0  0  0  0  0  0
  174.0678  -15.8130   16.8780 C   0  0  0  0  0  0  0  0  0  0  0  0
  173.8038  -14.9798   17.7446 O   0  0  0  0  0  0  0  0  0  0  0  0
  176.3842  -15.4272   15.6150 C   0  0  0  0  0  0  0  0  0  0  0  0
  177.1557  -14.4259   16.4946 C   0  0  1  0  0  0  0  0  0  0  0  0
  178.2640  -15.1024   17.2961 C   0  0  0  0  0  0  0  0  0  0  0  0
  177.6931  -13.1895   15.7738 C   0  0  0  0  0  0  0  0  0  0  0  0
  173.6385  -17.1373   16.9868 N   0  0  0  0  0  0  0  0  0  0  0  0
  172.7904  -17.6565   15.9070 C   0  0  2  0  0  0  0  0  0  0  0  0
  171.4309  -18.0555   16.5341 C   0  0  0  0  0  0  0  0  0  0  0  0
  170.4049  -17.3990   16.3320 O   0  0  0  0  0  0  0  0  0  0  0  0
  173.4445  -18.8638   15.2205 C   0  0  0  0  0  0  0  0  0  0  0  0
  173.4956  -18.7894   13.6890 C   0  0  0  0  0  0  0  0  0  0  0  0
  172.1877  -18.3334   13.0330 C   0  0  0  0  0  0  0  0  0  0  0  0
  171.9146  -19.1144   11.8092 N   0  0  0  0  0  0  0  0  0  0  0  0
  170.9328  -20.0209   11.6809 C   0  0  0  0  0  0  0  0  0  0  0  0
  169.7485  -19.7086   11.1521 N   0  0  0  0  0  4  0  0  0  0  0  0
  171.1359  -21.2771   12.0924 N   0  0  0  0  0  0  0  0  0  0  0  0
  171.4499  -19.1898   17.3238 N   0  0  0  0  0  0  0  0  0  0  0  0
  171.0483  -19.0351   18.7172 C   0  0  2  0  0  0  0  0  0  0  0  0
  172.2131  -18.8903   19.7306 C   0  0  0  0  0  0  0  0  0  0  0  0
  173.3863  -19.1092   19.4512 O   0  0  0  0  0  0  0  0  0  0  0  0
  170.1033  -20.1599   19.1718 C   0  0  0  0  0  0  0  0  0  0  0  0
  169.6819  -21.2070   18.1208 C   0  0  0  0  0  0  0  0  0  0  0  0
  168.1966  -21.1920   17.7396 C   0  0  0  0  0  0  0  0  0  0  0  0
  167.7257  -22.5453   17.1949 C   0  0  0  0  0  0  0  0  0  0  0  0
  168.7311  -23.5908   17.4133 N   0  0  0  0  0  4  0  0  0  0  0  0
  171.7837  -18.6307   21.0195 N   0  0  0  0  0  0  0  0  0  0  0  0
  171.2645  -19.6636   21.9131 C   0  0  1  0  0  0  0  0  0  0  0  0
  170.4818  -20.7675   21.1867 C   0  0  0  0  0  0  0  0  0  0  0  0
  172.4827  -20.1762   22.7155 C   0  0  0  0  0  0  0  0  0  0  0  0
  172.3888  -21.1004   23.5339 O   0  0  0  0  0  0  0  0  0  0  0  0
  169.0687  -20.3986   20.7204 C   0  0  1  0  0  0  0  0  0  0  0  0
  168.1038  -20.0540   21.8911 C   0  0  0  0  0  0  0  0  0  0  0  0
  168.7916  -18.9630   20.1915 C   0  0  0  0  0  0  0  0  0  0  0  0
  168.3854  -18.5687   21.6220 C   0  0  0  0  0  0  0  0  0  0  0  0
  173.7290  -19.6616   22.4028 N   0  0  0  0  0  0  0  0  0  0  0  0
  174.2574  -18.5460   23.1977 C   0  0  2  0  0  0  0  0  0  0  0  0
  173.5329  -17.2331   22.9042 C   0  0  0  0  0  0  0  0  0  0  0  0
  172.7401  -17.1288   21.9627 O   0  0  0  0  0  0  0  0  0  0  0  0
  175.7405  -18.4409   22.8222 C   0  0  0  0  0  0  0  0  0  0  0  0
  176.0823  -19.8525   22.3933 C   0  0  2  0  0  0  0  0  0  0  0  0
  174.8125  -20.3040   21.6592 C   0  0  0  0  0  0  0  0  0  0  0  0
  176.2574  -20.6616   23.5541 O   0  0  0  0  0  0  0  0  0  0  0  0
  173.8093  -16.2443   23.8072 N   0  0  0  0  0  0  0  0  0  0  0  0
  173.4339  -14.8286   23.6428 C   0  0  2  0  0  0  0  0  0  0  0  0
  173.2604  -14.4718   22.1450 C   0  0  0  0  0  0  0  0  0  0  0  0
  173.2990  -15.2813   21.2254 O   0  0  0  0  0  0  0  0  0  0  0  0
  174.5185  -13.9820   24.2751 C   0  0  0  0  0  0  0  0  0  0  0  0
  173.9410  -12.6642   24.7671 C   0  0  0  0  0  0  0  0  0  0  0  0
  174.7556  -11.7075   24.7281 O   0  0  0  0  0  1  0  0  0  0  0  0
  172.7623  -12.7284   25.2081 O   0  0  0  0  0  0  0  0  0  0  0  0
  173.0751  -13.1261   21.8855 N   0  0  0  0  0  0  0  0  0  0  0  0
  173.4079  -12.5693   20.5842 C   0  0  2  0  0  0  0  0  0  0  0  0
  173.9981  -11.1706   20.8177 C   0  0  0  0  0  0  0  0  0  0  0  0
  174.5727  -10.5318   19.9260 O   0  0  0  0  0  0  0  0  0  0  0  0
  172.2025  -12.5660   19.6373 C   0  0  0  0  0  0  0  0  0  0  0  0
  171.0006  -13.0173   20.2651 O   0  0  0  0  0  0  0  0  0  0  0  0
  173.9391  -10.7011   22.1135 N   0  0  0  0  0  0  0  0  0  0  0  0
  173.5360   -9.3302   22.3770 C   0  0  2  0  0  0  0  0  0  0  0  0
  174.5977   -8.3470   21.8886 C   0  0  0  0  0  0  0  0  0  0  0  0
  174.4465   -7.7295   20.8345 O   0  0  0  0  0  0  0  0  0  0  0  0
  173.1721   -9.0908   23.8557 C   0  0  0  0  0  0  0  0  0  0  0  0
  172.6621   -7.6872   24.0954 C   0  0  0  0  0  0  0  0  0  0  0  0
  173.1662   -6.6037   23.3664 C   0  0  0  0  0  0  0  0  0  0  0  0
  171.6995   -7.4457   25.0883 C   0  0  0  0  0  0  0  0  0  0  0  0
  172.7276   -5.3094   23.6299 C   0  0  0  0  0  0  0  0  0  0  0  0
  171.2658   -6.1469   25.3550 C   0  0  0  0  0  0  0  0  0  0  0  0
  171.7809   -5.0780   24.6269 C   0  0  0  0  0  0  0  0  0  0  0  0
  175.7259   -8.2074   22.6630 N   0  0  0  0  0  0  0  0  0  0  0  0
  176.7573   -7.2069   22.2887 C   0  0  2  0  0  0  0  0  0  0  0  0
  177.6683   -6.7543   23.4608 C   0  0  0  0  0  0  0  0  0  0  0  0
  177.2188   -6.3844   24.5421 O   0  0  0  0  0  0  0  0  0  0  0  0
  176.0650   -5.9870   21.6428 C   0  0  0  0  0  0  0  0  0  0  0  0
  175.1684   -6.3454   20.4710 C   0  0  0  0  0  0  0  0  0  0  0  0
  173.7769   -6.2370   20.6766 C   0  0  0  0  0  0  0  0  0  0  0  0
  172.8732   -6.5739   19.6788 C   0  0  0  0  0  0  0  0  0  0  0  0
  175.6577   -6.7735   19.2082 C   0  0  0  0  0  0  0  0  0  0  0  0
  174.7186   -7.0951   18.1906 C   0  0  0  0  0  0  0  0  0  0  0  0
  173.3437   -7.0044   18.4446 C   0  0  0  0  0  0  0  0  0  0  0  0
  177.0289   -6.9089   18.8909 C   0  0  0  0  0  0  0  0  0  0  0  0
  177.4487   -7.3260   17.6282 C   0  0  0  0  0  0  0  0  0  0  0  0
  176.5164   -7.6358   16.6489 C   0  0  0  0  0  0  0  0  0  0  0  0
  175.1609   -7.5202   16.9274 C   0  0  0  0  0  0  0  0  0  0  0  0
  179.0182   -6.8783   23.2288 N   0  0  0  0  0  0  0  0  0  0  0  0
  179.7411   -8.1603   23.2110 C   0  0  2  0  0  0  0  0  0  0  0  0
  180.2304   -8.7048   21.8472 C   0  0  0  0  0  0  0  0  0  0  0  0
  179.4002   -9.0405   21.0014 O   0  0  0  0  0  0  0  0  0  0  0  0
  179.0903   -9.2788   24.0450 C   0  0  0  0  0  0  0  0  0  0  0  0
  180.0581  -10.0448   24.9641 C   0  0  0  0  0  0  0  0  0  0  0  0
  179.9199   -9.7436   26.4639 C   0  0  0  0  0  0  0  0  0  0  0  0
  178.5486   -9.1690   26.8496 C   0  0  0  0  0  0  0  0  0  0  0  0
  178.4134   -9.1023   28.3195 N   0  0  0  0  0  4  0  0  0  0  0  0
  181.5835   -8.7498   21.6394 N   0  0  0  0  0  0  0  0  0  0  0  0
  182.5009   -7.6222   21.8821 C   0  0  2  0  0  0  0  0  0  0  0  0
  183.6473   -7.5601   20.8369 C   0  0  0  0  0  0  0  0  0  0  0  0
  184.4255   -6.5933   20.8349 O   0  0  0  0  0  0  0  0  0  0  0  0
  182.7822   -7.4259   23.3735 C   0  0  0  0  0  0  0  0  0  0  0  0
  183.5648   -6.2065   23.8562 C   0  0  0  0  0  0  0  0  0  0  0  0
  183.6506   -5.3199   22.6331 C   0  0  0  0  0  0  0  0  0  0  0  0
  182.9324   -4.2746   22.6000 O   0  0  0  0  0  1  0  0  0  0  0  0
  184.5762   -5.5323   21.8009 O   0  0  0  0  0  0  0  0  0  0  0  0
  183.9266   -8.6629   20.0432 N   0  0  0  0  0  0  0  0  0  0  0  0
  184.9227   -9.7257   20.2444 C   0  0  2  0  0  0  0  0  0  0  0  0
  186.3928   -9.3542   19.9884 C   0  0  0  0  0  0  0  0  0  0  0  0
  186.7823   -8.6328   19.0702 O   0  0  0  0  0  0  0  0  0  0  0  0
  184.5112  -10.8503   19.2813 C   0  0  0  0  0  0  0  0  0  0  0  0
  183.6363  -10.1477   18.2502 C   0  0  0  0  0  0  0  0  0  0  0  0
  182.9254   -9.0955   19.0774 C   0  0  0  0  0  0  0  0  0  0  0  0
  187.2806   -9.9147   20.8646 N   0  0  0  0  0  0  0  0  0  0  0  0
  1  2  2  0
  1  3  1  0
  1  4  1  0
  4  5  1  0
  4 10  1  0
  5  6  1  6
  5  8  1  0
  6  7  2  0
  6 11  1  0
  8  9  1  0
  9 10  1  0
 11 12  1  0
 12 13  1  1
 12 24  1  0
 13 14  1  0
 14 15  1  0
 14 19  2  0
 15 16  2  0
 15 17  1  0
 16 23  1  0
 17 18  1  0
 17 20  2  0
 18 19  1  0
 20 21  1  0
 21 22  1  0
 21 23  2  0
 24 25  2  0
 24 26  1  0
 26 27  1  0
 27 28  1  0
 27 30  1  6
 28 29  2  0
 28 37  1  0
 30 31  1  0
 31 32  1  0
 32 33  1  0
 33 34  1  0
 34 35  2  0
 34 36  1  0
 37 38  1  0
 38 39  1  0
 38 41  1  1
 39 40  2  0
 39 45  1  0
 41 42  1  0
 42 43  1  6
 42 44  1  0
 45 46  1  0
 46 47  1  0
 46 49  1  1
 47 48  2  0
 47 56  1  0
 49 50  1  0
 50 51  1  0
 51 52  1  0
 52 53  1  0
 53 54  2  0
 53 55  1  0
 56 57  1  0
 57 58  1  0
 57 60  1  1
 58 59  2  0
 58 65  1  0
 60 61  1  0
 61 62  1  0
 62 63  1  0
 63 64  1  0
 65 66  1  0
 66 67  1  6
 66 68  1  0
 70 67  1  1
 68 69  2  0
 68 74  1  0
 70 71  1  0
 70 72  1  0
 71 73  1  0
 72 73  1  0
 74 75  1  0
 74 80  1  0
 75 76  1  6
 75 78  1  0
 76 77  2  0
 76 82  1  0
 78 79  1  0
 79 80  1  0
 79 81  1  1
 82 83  1  0
 83 84  1  0
 83 86  1  6
 84 85  2  0
 84 90  1  0
 86 87  1  0
 87 88  1  0
 87 89  2  0
 90 91  1  0
 91 92  1  0
 91 94  1  6
 92 93  2  0
 92 96  1  0
 94 95  1  0
 96 97  1  0
 97 98  1  0
 97100  1  1
 98 99  2  0
 98107  1  0
100101  1  0
101102  2  0
101103  1  0
102104  1  0
103105  2  0
104106  2  0
105106  1  0
107108  1  0
108109  1  0
108111  1  1
109110  2  0
109122  1  0
111112  1  0
112113  2  0
112115  1  0
113114  1  0
114117  2  0
115116  2  0
115118  1  0
116117  1  0
116121  1  0
118119  2  0
119120  1  0
120121  2  0
122123  1  0
123124  1  0
123126  1  6
124125  2  0
124131  1  0
126127  1  0
127128  1  0
128129  1  0
129130  1  0
131132  1  0
132133  1  0
132135  1  1
133134  2  0
133140  1  0
135136  1  0
136137  1  0
137138  1  0
137139  2  0
140141  1  0
140146  1  0
141142  1  6
141144  1  0
142143  2  0
142147  1  0
144145  1  0
145146  1  0
M  CHG  6  35   1  54   1  64   1  88  -1 130   1 138  -1
M  END
$$$$
