
     RDKit          3D

147155  0  0  0  0  0  0  0  0999 V2000
  195.0937  -24.7612   45.2873 C   0  0  0  0  0  0  0  0  0  0  0  0
  195.0263  -25.9031   45.7489 O   0  0  0  0  0  0  0  0  0  0  0  0
  193.9899  -24.2161   44.4181 C   0  0  0  0  0  0  0  0  0  0  0  0
  196.1651  -23.9331   45.5438 N   0  0  0  0  0  0  0  0  0  0  0  0
  196.4621  -22.6362   44.9043 C   0  0  2  0  0  0  0  0  0  0  0  0
  197.0478  -22.8065   43.4873 C   0  0  0  0  0  0  0  0  0  0  0  0
  198.0725  -23.4400   43.2677 O   0  0  0  0  0  0  0  0  0  0  0  0
  197.5236  -22.0014   45.8067 C   0  0  0  0  0  0  0  0  0  0  0  0
  197.3458  -22.7056   47.1451 C   0  0  0  0  0  0  0  0  0  0  0  0
  196.9627  -24.1173   46.7425 C   0  0  0  0  0  0  0  0  0  0  0  0
  196.2802  -22.2803   42.4750 N   0  0  0  0  0  0  0  0  0  0  0  0
  196.7385  -21.2342   41.5449 C   0  0  1  0  0  0  0  0  0  0  0  0
  197.7229  -21.7800   40.4826 C   0  0  0  0  0  0  0  0  0  0  0  0
  197.9153  -20.8743   39.2951 C   0  0  0  0  0  0  0  0  0  0  0  0
  197.8097  -19.4482   39.2396 C   0  0  0  0  0  0  0  0  0  0  0  0
  197.5421  -18.4431   40.1928 C   0  0  0  0  0  0  0  0  0  0  0  0
  198.0493  -19.0587   37.9201 C   0  0  0  0  0  0  0  0  0  0  0  0
  198.3471  -20.1978   37.2070 N   0  0  0  0  0  0  0  0  0  0  0  0
  198.2686  -21.2892   38.0254 C   0  0  0  0  0  0  0  0  0  0  0  0
  197.9983  -17.7235   37.4977 C   0  0  0  0  0  0  0  0  0  0  0  0
  197.7073  -16.7560   38.4583 C   0  0  0  0  0  0  0  0  0  0  0  0
  197.5631  -15.1105   37.9815 Cl  0  0  0  0  0  0  0  0  0  0  0  0
  197.4922  -17.0987   39.7878 C   0  0  0  0  0  0  0  0  0  0  0  0
  195.5564  -20.4781   40.8946 C   0  0  0  0  0  0  0  0  0  0  0  0
  195.4914  -20.2323   39.6908 O   0  0  0  0  0  0  0  0  0  0  0  0
  194.6397  -19.9689   41.7881 N   0  0  0  0  0  0  0  0  0  0  0  0
  194.6585  -18.5728   42.2299 C   0  0  2  0  0  0  0  0  0  0  0  0
  195.6211  -18.4213   43.4370 C   0  0  0  0  0  0  0  0  0  0  0  0
  195.2630  -18.5841   44.6022 O   0  0  0  0  0  0  0  0  0  0  0  0
  193.2213  -18.1344   42.5963 C   0  0  0  0  0  0  0  0  0  0  0  0
  192.6938  -18.8493   43.8480 C   0  0  0  0  0  0  0  0  0  0  0  0
  191.2235  -19.2413   43.7236 C   0  0  0  0  0  0  0  0  0  0  0  0
  190.3145  -18.1407   44.0867 N   0  0  0  0  0  0  0  0  0  0  0  0
  189.5903  -18.1045   45.2154 C   0  0  0  0  0  0  0  0  0  0  0  0
  188.7781  -19.1065   45.5633 N   0  0  0  0  0  4  0  0  0  0  0  0
  189.6768  -17.0448   46.0239 N   0  0  0  0  0  0  0  0  0  0  0  0
  196.9000  -18.0223   43.1006 N   0  0  0  0  0  0  0  0  0  0  0  0
  197.2081  -16.6515   42.6983 C   0  0  2  0  0  0  0  0  0  0  0  0
  198.6598  -16.5623   42.1549 C   0  0  0  0  0  0  0  0  0  0  0  0
  199.4404  -17.5108   42.2334 O   0  0  0  0  0  0  0  0  0  0  0  0
  196.7194  -15.5754   43.6945 C   0  0  0  0  0  0  0  0  0  0  0  0
  196.2259  -14.2037   43.1981 C   0  0  1  0  0  0  0  0  0  0  0  0
  197.1704  -13.0747   43.6006 C   0  0  0  0  0  0  0  0  0  0  0  0
  195.8940  -14.1198   41.7081 C   0  0  0  0  0  0  0  0  0  0  0  0
  199.0225  -15.3718   41.5218 N   0  0  0  0  0  0  0  0  0  0  0  0
  200.4320  -14.9709   41.6075 C   0  0  2  0  0  0  0  0  0  0  0  0
  201.1921  -15.6963   40.4688 C   0  0  0  0  0  0  0  0  0  0  0  0
  201.8578  -16.7149   40.6786 O   0  0  0  0  0  0  0  0  0  0  0  0
  201.0294  -15.3348   42.9741 C   0  0  0  0  0  0  0  0  0  0  0  0
  200.0303  -15.9124   43.9851 C   0  0  0  0  0  0  0  0  0  0  0  0
  199.8529  -15.0693   45.2525 C   0  0  0  0  0  0  0  0  0  0  0  0
  199.1895  -15.8526   46.3149 N   0  0  0  0  0  0  0  0  0  0  0  0
  199.5243  -15.8203   47.6145 C   0  0  0  0  0  0  0  0  0  0  0  0
  198.9523  -16.6257   48.5110 N   0  0  0  0  0  4  0  0  0  0  0  0
  200.4571  -14.9590   48.0349 N   0  0  0  0  0  0  0  0  0  0  0  0
  201.0682  -15.1287   39.2146 N   0  0  0  0  0  0  0  0  0  0  0  0
  201.8992  -15.6812   38.1511 C   0  0  2  0  0  0  0  0  0  0  0  0
  201.8333  -17.2222   37.9911 C   0  0  0  0  0  0  0  0  0  0  0  0
  202.6443  -17.8719   37.3409 O   0  0  0  0  0  0  0  0  0  0  0  0
  203.3658  -15.2359   38.2770 C   0  0  0  0  0  0  0  0  0  0  0  0
  204.4007  -15.9185   37.3595 C   0  0  0  0  0  0  0  0  0  0  0  0
  205.1469  -17.1047   37.9822 C   0  0  0  0  0  0  0  0  0  0  0  0
  206.3073  -17.5841   37.1024 C   0  0  0  0  0  0  0  0  0  0  0  0
  205.9121  -17.6687   35.6925 N   0  0  0  0  0  4  0  0  0  0  0  0
  200.6881  -17.7769   38.5332 N   0  0  0  0  0  0  0  0  0  0  0  0
  200.4184  -19.2130   38.5351 C   0  0  1  0  0  0  0  0  0  0  0  0
  201.6884  -20.0765   38.5211 C   0  0  0  0  0  0  0  0  0  0  0  0
  199.4958  -19.4656   39.7497 C   0  0  0  0  0  0  0  0  0  0  0  0
  198.7610  -18.5827   40.2117 O   0  0  0  0  0  0  0  0  0  0  0  0
  201.6123  -21.3769   37.7125 C   0  0  1  0  0  0  0  0  0  0  0  0
  200.3027  -21.5114   36.8835 C   0  0  0  0  0  0  0  0  0  0  0  0
  202.3705  -21.4775   36.3588 C   0  0  0  0  0  0  0  0  0  0  0  0
  201.0826  -21.0082   35.6602 C   0  0  0  0  0  0  0  0  0  0  0  0
  199.4073  -20.7569   40.2401 N   0  0  0  0  0  0  0  0  0  0  0  0
  198.3066  -21.0979   41.1500 C   0  0  2  0  0  0  0  0  0  0  0  0
  198.4890  -20.4793   42.5352 C   0  0  0  0  0  0  0  0  0  0  0  0
  199.1370  -19.4405   42.6989 O   0  0  0  0  0  0  0  0  0  0  0  0
  198.3057  -22.6290   41.2373 C   0  0  0  0  0  0  0  0  0  0  0  0
  198.9186  -23.0440   39.9162 C   0  0  2  0  0  0  0  0  0  0  0  0
  199.9976  -21.9765   39.6891 C   0  0  0  0  0  0  0  0  0  0  0  0
  197.9341  -22.9313   38.8911 O   0  0  0  0  0  0  0  0  0  0  0  0
  197.8262  -21.1518   43.5241 N   0  0  0  0  0  0  0  0  0  0  0  0
  197.5282  -20.6022   44.8588 C   0  0  2  0  0  0  0  0  0  0  0  0
  198.7547  -19.8506   45.4348 C   0  0  0  0  0  0  0  0  0  0  0  0
  199.7342  -20.3925   45.9344 O   0  0  0  0  0  0  0  0  0  0  0  0
  197.1311  -21.7530   45.7592 C   0  0  0  0  0  0  0  0  0  0  0  0
  198.3323  -22.2419   46.5530 C   0  0  0  0  0  0  0  0  0  0  0  0
  198.1371  -22.2837   47.7941 O   0  0  0  0  0  1  0  0  0  0  0  0
  199.3683  -22.4662   45.8714 O   0  0  0  0  0  0  0  0  0  0  0  0
  198.6722  -18.4714   45.3753 N   0  0  0  0  0  0  0  0  0  0  0  0
  199.8764  -17.6572   45.3448 C   0  0  2  0  0  0  0  0  0  0  0  0
  200.6171  -17.8785   46.6721 C   0  0  0  0  0  0  0  0  0  0  0  0
  201.8016  -18.2359   46.7233 O   0  0  0  0  0  0  0  0  0  0  0  0
  199.5642  -16.1827   45.0657 C   0  0  0  0  0  0  0  0  0  0  0  0
  198.2324  -15.8169   45.4331 O   0  0  0  0  0  0  0  0  0  0  0  0
  199.8552  -17.7511   47.8150 N   0  0  0  0  0  0  0  0  0  0  0  0
  199.1400  -16.5150   48.0830 C   0  0  2  0  0  0  0  0  0  0  0  0
  199.3100  -16.0926   49.5408 C   0  0  0  0  0  0  0  0  0  0  0  0
  198.3293  -15.8531   50.2452 O   0  0  0  0  0  0  0  0  0  0  0  0
  197.6543  -16.5874   47.6783 C   0  0  0  0  0  0  0  0  0  0  0  0
  196.8219  -15.5383   48.3812 C   0  0  0  0  0  0  0  0  0  0  0  0
  195.4353  -15.4783   48.1988 C   0  0  0  0  0  0  0  0  0  0  0  0
  197.4392  -14.5785   49.1988 C   0  0  0  0  0  0  0  0  0  0  0  0
  194.6849  -14.4777   48.8094 C   0  0  0  0  0  0  0  0  0  0  0  0
  196.6860  -13.5727   49.8049 C   0  0  0  0  0  0  0  0  0  0  0  0
  195.3087  -13.5210   49.6091 C   0  0  0  0  0  0  0  0  0  0  0  0
  200.5965  -15.9713   50.0121 N   0  0  0  0  0  0  0  0  0  0  0  0
  201.6651  -15.4636   49.1148 C   0  0  2  0  0  0  0  0  0  0  0  0
  203.1033  -15.6193   49.6767 C   0  0  0  0  0  0  0  0  0  0  0  0
  203.9936  -14.8046   49.4487 O   0  0  0  0  0  0  0  0  0  0  0  0
  201.3771  -13.9850   48.7747 C   0  0  0  0  0  0  0  0  0  0  0  0
  202.4921  -13.3111   47.9950 C   0  0  0  0  0  0  0  0  0  0  0  0
  203.5273  -12.7174   48.7475 C   0  0  0  0  0  0  0  0  0  0  0  0
  204.5739  -12.0479   48.1292 C   0  0  0  0  0  0  0  0  0  0  0  0
  202.5375  -13.2549   46.5765 C   0  0  0  0  0  0  0  0  0  0  0  0
  203.6274  -12.5828   45.9590 C   0  0  0  0  0  0  0  0  0  0  0  0
  204.6194  -11.9786   46.7425 C   0  0  0  0  0  0  0  0  0  0  0  0
  201.5605  -13.8223   45.7264 C   0  0  0  0  0  0  0  0  0  0  0  0
  201.6646  -13.7419   44.3382 C   0  0  0  0  0  0  0  0  0  0  0  0
  202.7357  -13.0810   43.7549 C   0  0  0  0  0  0  0  0  0  0  0  0
  203.7109  -12.5064   44.5593 C   0  0  0  0  0  0  0  0  0  0  0  0
  203.2854  -16.6918   50.5183 N   0  0  0  0  0  0  0  0  0  0  0  0
  202.5064  -16.9230   51.7455 C   0  0  2  0  0  0  0  0  0  0  0  0
  201.0612  -17.4589   51.6040 C   0  0  0  0  0  0  0  0  0  0  0  0
  200.8591  -18.4722   50.9334 O   0  0  0  0  0  0  0  0  0  0  0  0
  202.5672  -15.7779   52.7728 C   0  0  0  0  0  0  0  0  0  0  0  0
  203.9885  -15.3508   53.1796 C   0  0  0  0  0  0  0  0  0  0  0  0
  204.4704  -15.8763   54.5401 C   0  0  0  0  0  0  0  0  0  0  0  0
  205.1217  -17.2654   54.4647 C   0  0  0  0  0  0  0  0  0  0  0  0
  204.0860  -18.3190   54.4419 N   0  0  0  0  0  4  0  0  0  0  0  0
  200.0746  -16.7852   52.2740 N   0  0  0  0  0  0  0  0  0  0  0  0
  200.0491  -16.5818   53.7334 C   0  0  2  0  0  0  0  0  0  0  0  0
  198.6065  -16.6101   54.3069 C   0  0  0  0  0  0  0  0  0  0  0  0
  198.4323  -16.7739   55.5247 O   0  0  0  0  0  0  0  0  0  0  0  0
  201.0540  -15.5173   54.1792 C   0  0  0  0  0  0  0  0  0  0  0  0
  200.6592  -14.4731   55.2215 C   0  0  0  0  0  0  0  0  0  0  0  0
  201.7599  -13.4384   55.1371 C   0  0  0  0  0  0  0  0  0  0  0  0
  202.2738  -13.2026   54.0014 O   0  0  0  0  0  1  0  0  0  0  0  0
  201.9734  -12.7049   56.1426 O   0  0  0  0  0  0  0  0  0  0  0  0
  197.5312  -16.2570   53.5048 N   0  0  0  0  0  0  0  0  0  0  0  0
  196.1832  -16.8414   53.4456 C   0  0  2  0  0  0  0  0  0  0  0  0
  196.0525  -18.2129   52.7625 C   0  0  0  0  0  0  0  0  0  0  0  0
  195.7975  -19.2648   53.3488 O   0  0  0  0  0  0  0  0  0  0  0  0
  195.3326  -15.8142   52.6821 C   0  0  0  0  0  0  0  0  0  0  0  0
  196.3584  -14.9796   51.9248 C   0  0  0  0  0  0  0  0  0  0  0  0
  197.5297  -14.9384   52.8856 C   0  0  0  0  0  0  0  0  0  0  0  0
  196.2675  -18.1972   51.4122 N   0  0  0  0  0  0  0  0  0  0  0  0
  1  2  2  0
  1  3  1  0
  1  4  1  0
  4  5  1  0
  4 10  1  0
  5  6  1  6
  5  8  1  0
  6  7  2  0
  6 11  1  0
  8  9  1  0
  9 10  1  0
 11 12  1  0
 12 13  1  6
 12 24  1  0
 13 14  1  0
 14 15  1  0
 14 19  2  0
 15 16  2  0
 15 17  1  0
 16 23  1  0
 17 18  1  0
 17 20  2  0
 18 19  1  0
 20 21  1  0
 21 22  1  0
 21 23  2  0
 24 25  2  0
 24 26  1  0
 26 27  1  0
 27 28  1  0
 27 30  1  1
 28 29  2  0
 28 37  1  0
 30 31  1  0
 31 32  1  0
 32 33  1  0
 33 34  1  0
 34 35  2  0
 34 36  1  0
 37 38  1  0
 38 39  1  0
 38 41  1  1
 39 40  2  0
 39 45  1  0
 41 42  1  0
 42 43  1  6
 42 44  1  0
 45 46  1  0
 46 47  1  0
 46 49  1  1
 47 48  2  0
 47 56  1  0
 49 50  1  0
 50 51  1  0
 51 52  1  0
 52 53  1  0
 53 54  2  0
 53 55  1  0
 56 57  1  0
 57 58  1  0
 57 60  1  1
 58 59  2  0
 58 65  1  0
 60 61  1  0
 61 62  1  0
 62 63  1  0
 63 64  1  0
 65 66  1  0
 66 67  1  1
 66 68  1  0
 70 67  1  6
 68 69  2  0
 68 74  1  0
 70 71  1  0
 70 72  1  0
 71 73  1  0
 72 73  1  0
 74 75  1  0
 74 80  1  0
 75 76  1  1
 75 78  1  0
 76 77  2  0
 76 82  1  0
 78 79  1  0
 79 80  1  0
 79 81  1  6
 82 83  1  0
 83 84  1  0
 83 86  1  1
 84 85  2  0
 84 90  1  0
 86 87  1  0
 87 88  1  0
 87 89  2  0
 90 91  1  0
 91 92  1  0
 91 94  1  1
 92 93  2  0
 92 96  1  0
 94 95  1  0
 96 97  1  0
 97 98  1  0
 97100  1  1
 98 99  2  0
 98107  1  0
100101  1  0
101102  2  0
101103  1  0
102104  1  0
103105  2  0
104106  2  0
105106  1  0
107108  1  0
108109  1  0
108111  1  1
109110  2  0
109122  1  0
111112  1  0
112113  2  0
112115  1  0
113114  1  0
114117  2  0
115116  2  0
115118  1  0
116117  1  0
116121  1  0
118119  2  0
119120  1  0
120121  2  0
122123  1  0
123124  1  0
123126  1  6
124125  2  0
124131  1  0
126127  1  0
127128  1  0
128129  1  0
129130  1  0
131132  1  0
132133  1  0
132135  1  6
133134  2  0
133140  1  0
135136  1  0
136137  1  0
137138  1  0
137139  2  0
140141  1  0
140146  1  0
141142  1  6
141144  1  0
142143  2  0
142147  1  0
144145  1  0
145146  1  0
M  CHG  6  35   1  54   1  64   1  88  -1 130   1 138  -1
M  END
$$$$
