
     RDKit          3D

147155  0  0  0  0  0  0  0  0999 V2000
  206.7098  -15.6277   41.9448 C   0  0  0  0  0  0  0  0  0  0  0  0
  205.7034  -15.6213   41.2317 O   0  0  0  0  0  0  0  0  0  0  0  0
  207.5556  -16.8686   42.0711 C   0  0  0  0  0  0  0  0  0  0  0  0
  207.1115  -14.5133   42.6492 N   0  0  0  0  0  0  0  0  0  0  0  0
  207.5486  -14.4594   44.0582 C   0  0  2  0  0  0  0  0  0  0  0  0
  206.3611  -14.5415   45.0396 C   0  0  0  0  0  0  0  0  0  0  0  0
  205.2026  -14.3496   44.6923 O   0  0  0  0  0  0  0  0  0  0  0  0
  208.2137  -13.0875   44.1980 C   0  0  0  0  0  0  0  0  0  0  0  0
  208.5933  -12.7094   42.7726 C   0  0  0  0  0  0  0  0  0  0  0  0
  207.4590  -13.2901   41.9492 C   0  0  0  0  0  0  0  0  0  0  0  0
  206.6874  -14.9456   46.3128 N   0  0  0  0  0  0  0  0  0  0  0  0
  208.0106  -14.7532   46.9303 C   0  0  1  0  0  0  0  0  0  0  0  0
  209.1084  -14.4380   45.8858 C   0  0  0  0  0  0  0  0  0  0  0  0
  210.5135  -14.6567   46.3809 C   0  0  0  0  0  0  0  0  0  0  0  0
  210.9576  -15.4982   47.4499 C   0  0  0  0  0  0  0  0  0  0  0  0
  210.3121  -16.3822   48.3399 C   0  0  0  0  0  0  0  0  0  0  0  0
  212.3429  -15.3547   47.5517 C   0  0  0  0  0  0  0  0  0  0  0  0
  212.7391  -14.5023   46.5462 N   0  0  0  0  0  0  0  0  0  0  0  0
  211.6475  -14.0806   45.8409 C   0  0  0  0  0  0  0  0  0  0  0  0
  213.1094  -16.0186   48.5190 C   0  0  0  0  0  0  0  0  0  0  0  0
  212.4392  -16.8663   49.3996 C   0  0  0  0  0  0  0  0  0  0  0  0
  213.3203  -17.6512   50.6500 Cl  0  0  0  0  0  0  0  0  0  0  0  0
  211.0658  -17.0600   49.3128 C   0  0  0  0  0  0  0  0  0  0  0  0
  207.9755  -13.6972   48.0597 C   0  0  0  0  0  0  0  0  0  0  0  0
  208.9720  -13.3513   48.6931 O   0  0  0  0  0  0  0  0  0  0  0  0
  206.7126  -13.2700   48.4069 N   0  0  0  0  0  0  0  0  0  0  0  0
  205.7994  -14.0796   49.2165 C   0  0  2  0  0  0  0  0  0  0  0  0
  205.9371  -15.5732   48.8206 C   0  0  0  0  0  0  0  0  0  0  0  0
  207.0216  -16.1084   48.5971 O   0  0  0  0  0  0  0  0  0  0  0  0
  204.3522  -13.5734   49.0128 C   0  0  0  0  0  0  0  0  0  0  0  0
  203.7850  -12.9043   50.2724 C   0  0  0  0  0  0  0  0  0  0  0  0
  203.7298  -11.3831   50.1541 C   0  0  0  0  0  0  0  0  0  0  0  0
  202.5388  -10.9179   49.4229 N   0  0  0  0  0  0  0  0  0  0  0  0
  201.4150  -10.4844   50.0138 C   0  0  0  0  0  0  0  0  0  0  0  0
  200.2382  -10.4941   49.3813 N   0  0  0  0  0  4  0  0  0  0  0  0
  201.4595  -10.0314   51.2694 N   0  0  0  0  0  0  0  0  0  0  0  0
  204.7352  -16.2379   48.6739 N   0  0  0  0  0  0  0  0  0  0  0  0
  204.6044  -17.6736   48.9143 C   0  0  2  0  0  0  0  0  0  0  0  0
  203.1223  -18.0403   49.1964 C   0  0  0  0  0  0  0  0  0  0  0  0
  202.6479  -17.9928   50.3312 O   0  0  0  0  0  0  0  0  0  0  0  0
  205.7035  -18.2645   49.8266 C   0  0  0  0  0  0  0  0  0  0  0  0
  205.6430  -19.7321   50.2892 C   0  0  1  0  0  0  0  0  0  0  0  0
  204.2729  -20.0996   50.8518 C   0  0  0  0  0  0  0  0  0  0  0  0
  206.0964  -20.7688   49.2613 C   0  0  0  0  0  0  0  0  0  0  0  0
  202.3358  -18.3745   48.0922 N   0  0  0  0  0  0  0  0  0  0  0  0
  200.9370  -17.9296   48.1080 C   0  0  2  0  0  0  0  0  0  0  0  0
  200.2504  -18.5083   46.8453 C   0  0  0  0  0  0  0  0  0  0  0  0
  200.5360  -18.1116   45.7114 O   0  0  0  0  0  0  0  0  0  0  0  0
  200.8430  -16.3974   48.1205 C   0  0  0  0  0  0  0  0  0  0  0  0
  200.7499  -15.7652   49.5153 C   0  0  0  0  0  0  0  0  0  0  0  0
  199.9990  -16.6144   50.5468 C   0  0  0  0  0  0  0  0  0  0  0  0
  198.7313  -15.9647   50.9381 N   0  0  0  0  0  0  0  0  0  0  0  0
  198.6367  -14.7727   51.5484 C   0  0  0  0  0  0  0  0  0  0  0  0
  198.7100  -14.6511   52.8748 N   0  0  0  0  0  4  0  0  0  0  0  0
  198.4631  -13.6675   50.8155 N   0  0  0  0  0  0  0  0  0  0  0  0
  199.3088  -19.4930   47.0783 N   0  0  0  0  0  0  0  0  0  0  0  0
  198.6618  -20.0820   45.9114 C   0  0  2  0  0  0  0  0  0  0  0  0
  197.8737  -19.0888   45.0187 C   0  0  0  0  0  0  0  0  0  0  0  0
  196.7269  -19.2861   44.6335 O   0  0  0  0  0  0  0  0  0  0  0  0
  197.7575  -21.2663   46.2917 C   0  0  0  0  0  0  0  0  0  0  0  0
  198.4285  -22.5036   46.9220 C   0  0  0  0  0  0  0  0  0  0  0  0
  197.6851  -23.8289   46.7152 C   0  0  0  0  0  0  0  0  0  0  0  0
  198.5961  -24.9191   46.1393 C   0  0  0  0  0  0  0  0  0  0  0  0
  200.0127  -24.5935   46.3356 N   0  0  0  0  0  4  0  0  0  0  0  0
  198.6414  -18.0255   44.5790 N   0  0  0  0  0  0  0  0  0  0  0  0
  198.7066  -17.6106   43.1796 C   0  0  1  0  0  0  0  0  0  0  0  0
  199.7659  -18.3663   42.3636 C   0  0  0  0  0  0  0  0  0  0  0  0
  197.2676  -17.7520   42.6319 C   0  0  0  0  0  0  0  0  0  0  0  0
  196.8350  -18.8248   42.1906 O   0  0  0  0  0  0  0  0  0  0  0  0
  199.8067  -18.0605   40.8618 C   0  0  1  0  0  0  0  0  0  0  0  0
  199.2163  -16.6673   40.5003 C   0  0  0  0  0  0  0  0  0  0  0  0
  201.1331  -17.5619   40.2218 C   0  0  0  0  0  0  0  0  0  0  0  0
  200.6511  -16.1216   40.4670 C   0  0  0  0  0  0  0  0  0  0  0  0
  196.4132  -16.6713   42.7655 N   0  0  0  0  0  0  0  0  0  0  0  0
  195.0329  -16.9068   43.2071 C   0  0  2  0  0  0  0  0  0  0  0  0
  194.1842  -17.5693   42.1229 C   0  0  0  0  0  0  0  0  0  0  0  0
  193.8959  -18.7695   42.1712 O   0  0  0  0  0  0  0  0  0  0  0  0
  194.4738  -15.5235   43.5616 C   0  0  0  0  0  0  0  0  0  0  0  0
  195.7161  -14.7409   43.9325 C   0  0  2  0  0  0  0  0  0  0  0  0
  196.7587  -15.2600   42.9331 C   0  0  0  0  0  0  0  0  0  0  0  0
  196.1185  -15.1049   45.2510 O   0  0  0  0  0  0  0  0  0  0  0  0
  193.7488  -16.6983   41.1632 N   0  0  0  0  0  0  0  0  0  0  0  0
  192.3356  -16.3629   40.9129 C   0  0  2  0  0  0  0  0  0  0  0  0
  192.1527  -14.8351   40.7307 C   0  0  0  0  0  0  0  0  0  0  0  0
  192.4195  -13.9936   41.5811 O   0  0  0  0  0  0  0  0  0  0  0  0
  191.5218  -16.8657   42.0867 C   0  0  0  0  0  0  0  0  0  0  0  0
  190.0500  -16.5399   41.8877 C   0  0  0  0  0  0  0  0  0  0  0  0
  189.5850  -15.7490   42.7471 O   0  0  0  0  0  1  0  0  0  0  0  0
  189.4887  -17.1566   40.9429 O   0  0  0  0  0  0  0  0  0  0  0  0
  191.6252  -14.4540   39.5104 N   0  0  0  0  0  0  0  0  0  0  0  0
  191.4326  -13.0484   39.1924 C   0  0  2  0  0  0  0  0  0  0  0  0
  189.9359  -12.8377   38.9189 C   0  0  0  0  0  0  0  0  0  0  0  0
  189.1257  -12.5677   39.8155 O   0  0  0  0  0  0  0  0  0  0  0  0
  192.3281  -12.5951   38.0338 C   0  0  0  0  0  0  0  0  0  0  0  0
  192.5337  -11.1810   38.0099 O   0  0  0  0  0  0  0  0  0  0  0  0
  189.5233  -13.0646   37.6222 N   0  0  0  0  0  0  0  0  0  0  0  0
  189.3187  -11.9490   36.7141 C   0  0  2  0  0  0  0  0  0  0  0  0
  190.5803  -11.6714   35.8995 C   0  0  0  0  0  0  0  0  0  0  0  0
  191.2286  -10.6399   36.0749 O   0  0  0  0  0  0  0  0  0  0  0  0
  188.8117  -10.6826   37.4322 C   0  0  0  0  0  0  0  0  0  0  0  0
  187.6064  -10.9657   38.3007 C   0  0  0  0  0  0  0  0  0  0  0  0
  187.5875  -10.5928   39.6498 C   0  0  0  0  0  0  0  0  0  0  0  0
  186.4996  -11.6484   37.7717 C   0  0  0  0  0  0  0  0  0  0  0  0
  186.4946  -10.9034   40.4537 C   0  0  0  0  0  0  0  0  0  0  0  0
  185.4078  -11.9642   38.5807 C   0  0  0  0  0  0  0  0  0  0  0  0
  185.4056  -11.5932   39.9224 C   0  0  0  0  0  0  0  0  0  0  0  0
  190.9358  -12.6076   34.9565 N   0  0  0  0  0  0  0  0  0  0  0  0
  190.1465  -12.7292   33.7048 C   0  0  2  0  0  0  0  0  0  0  0  0
  189.3227  -11.4656   33.3396 C   0  0  0  0  0  0  0  0  0  0  0  0
  189.8426  -10.4395   32.9094 O   0  0  0  0  0  0  0  0  0  0  0  0
  189.2228  -13.9623   33.8094 C   0  0  0  0  0  0  0  0  0  0  0  0
  188.6672  -14.4221   32.4732 C   0  0  0  0  0  0  0  0  0  0  0  0
  189.5472  -14.3872   31.3710 C   0  0  0  0  0  0  0  0  0  0  0  0
  189.1254  -14.7550   30.1011 C   0  0  0  0  0  0  0  0  0  0  0  0
  187.3337  -14.8755   32.2897 C   0  0  0  0  0  0  0  0  0  0  0  0
  186.9242  -15.2678   30.9862 C   0  0  0  0  0  0  0  0  0  0  0  0
  187.8194  -15.1885   29.9112 C   0  0  0  0  0  0  0  0  0  0  0  0
  186.3728  -14.9593   33.3235 C   0  0  0  0  0  0  0  0  0  0  0  0
  185.0795  -15.4216   33.0829 C   0  0  0  0  0  0  0  0  0  0  0  0
  184.6991  -15.7991   31.8034 C   0  0  0  0  0  0  0  0  0  0  0  0
  185.6150  -15.7239   30.7624 C   0  0  0  0  0  0  0  0  0  0  0  0
  187.9595  -11.6079   33.4528 N   0  0  0  0  0  0  0  0  0  0  0  0
  187.0129  -11.4292   32.3399 C   0  0  2  0  0  0  0  0  0  0  0  0
  185.6292  -12.1155   32.4398 C   0  0  0  0  0  0  0  0  0  0  0  0
  185.5660  -13.3456   32.4244 O   0  0  0  0  0  0  0  0  0  0  0  0
  187.6209  -11.6248   30.9391 C   0  0  0  0  0  0  0  0  0  0  0  0
  187.1115  -10.6405   29.8715 C   0  0  0  0  0  0  0  0  0  0  0  0
  185.5842  -10.5230   29.7587 C   0  0  0  0  0  0  0  0  0  0  0  0
  184.9291  -11.7143   29.0439 C   0  0  0  0  0  0  0  0  0  0  0  0
  183.7259  -11.2746   28.3076 N   0  0  0  0  0  4  0  0  0  0  0  0
  184.5353  -11.3030   32.5789 N   0  0  0  0  0  0  0  0  0  0  0  0
  183.9015  -10.5636   31.4727 C   0  0  2  0  0  0  0  0  0  0  0  0
  184.7031  -10.6836   30.1485 C   0  0  0  0  0  0  0  0  0  0  0  0
  185.2798  -11.7475   29.8733 O   0  0  0  0  0  0  0  0  0  0  0  0
  183.3385   -9.2176   31.9343 C   0  0  0  0  0  0  0  0  0  0  0  0
  183.0846   -8.9562   33.4175 C   0  0  0  0  0  0  0  0  0  0  0  0
  181.7338   -9.5878   33.6738 C   0  0  0  0  0  0  0  0  0  0  0  0
  181.5098  -10.7388   33.1894 O   0  0  0  0  0  1  0  0  0  0  0  0
  180.9718   -9.0514   34.5259 O   0  0  0  0  0  0  0  0  0  0  0  0
  184.6133   -9.6874   29.1874 N   0  0  0  0  0  0  0  0  0  0  0  0
  184.2081   -9.7886   27.7775 C   0  0  2  0  0  0  0  0  0  0  0  0
  185.2198  -10.4256   26.8103 C   0  0  0  0  0  0  0  0  0  0  0  0
  186.4149  -10.5891   27.0561 O   0  0  0  0  0  0  0  0  0  0  0  0
  183.9275   -8.3440   27.3349 C   0  0  0  0  0  0  0  0  0  0  0  0
  184.6812   -7.4961   28.3523 C   0  0  0  0  0  0  0  0  0  0  0  0
  184.5385   -8.3009   29.6284 C   0  0  0  0  0  0  0  0  0  0  0  0
  184.6956  -10.7942   25.6024 N   0  0  0  0  0  0  0  0  0  0  0  0
  1  2  2  0
  1  3  1  0
  1  4  1  0
  4  5  1  0
  4 10  1  0
  5  6  1  1
  5  8  1  0
  6  7  2  0
  6 11  1  0
  8  9  1  0
  9 10  1  0
 11 12  1  0
 12 13  1  6
 12 24  1  0
 13 14  1  0
 14 15  1  0
 14 19  2  0
 15 16  2  0
 15 17  1  0
 16 23  1  0
 17 18  1  0
 17 20  2  0
 18 19  1  0
 20 21  1  0
 21 22  1  0
 21 23  2  0
 24 25  2  0
 24 26  1  0
 26 27  1  0
 27 28  1  0
 27 30  1  6
 28 29  2  0
 28 37  1  0
 30 31  1  0
 31 32  1  0
 32 33  1  0
 33 34  1  0
 34 35  2  0
 34 36  1  0
 37 38  1  0
 38 39  1  0
 38 41  1  1
 39 40  2  0
 39 45  1  0
 41 42  1  0
 42 43  1  6
 42 44  1  0
 45 46  1  0
 46 47  1  0
 46 49  1  6
 47 48  2  0
 47 56  1  0
 49 50  1  0
 50 51  1  0
 51 52  1  0
 52 53  1  0
 53 54  2  0
 53 55  1  0
 56 57  1  0
 57 58  1  0
 57 60  1  1
 58 59  2  0
 58 65  1  0
 60 61  1  0
 61 62  1  0
 62 63  1  0
 63 64  1  0
 65 66  1  0
 66 67  1  6
 66 68  1  0
 70 67  1  1
 68 69  2  0
 68 74  1  0
 70 71  1  0
 70 72  1  0
 71 73  1  0
 72 73  1  0
 74 75  1  0
 74 80  1  0
 75 76  1  6
 75 78  1  0
 76 77  2  0
 76 82  1  0
 78 79  1  0
 79 80  1  0
 79 81  1  1
 82 83  1  0
 83 84  1  0
 83 86  1  1
 84 85  2  0
 84 90  1  0
 86 87  1  0
 87 88  1  0
 87 89  2  0
 90 91  1  0
 91 92  1  0
 91 94  1  6
 92 93  2  0
 92 96  1  0
 94 95  1  0
 96 97  1  0
 97 98  1  0
 97100  1  1
 98 99  2  0
 98107  1  0
100101  1  0
101102  2  0
101103  1  0
102104  1  0
103105  2  0
104106  2  0
105106  1  0
107108  1  0
108109  1  0
108111  1  1
109110  2  0
109122  1  0
111112  1  0
112113  2  0
112115  1  0
113114  1  0
114117  2  0
115116  2  0
115118  1  0
116117  1  0
116121  1  0
118119  2  0
119120  1  0
120121  2  0
122123  1  0
123124  1  0
123126  1  6
124125  2  0
124131  1  0
126127  1  0
127128  1  0
128129  1  0
129130  1  0
131132  1  0
132133  1  0
132135  1  1
133134  2  0
133140  1  0
135136  1  0
136137  1  0
137138  1  0
137139  2  0
140141  1  0
140146  1  0
141142  1  6
141144  1  0
142143  2  0
142147  1  0
144145  1  0
145146  1  0
M  CHG  6  35   1  54   1  64   1  88  -1 130   1 138  -1
M  END
$$$$
