
     RDKit          3D

147155  0  0  0  0  0  0  0  0999 V2000
  173.9436  -17.7271    3.2497 C   0  0  0  0  0  0  0  0  0  0  0  0
  174.7607  -17.3765    4.1046 O   0  0  0  0  0  0  0  0  0  0  0  0
  174.1798  -18.9631    2.4206 C   0  0  0  0  0  0  0  0  0  0  0  0
  172.7845  -17.0194    3.0153 N   0  0  0  0  0  0  0  0  0  0  0  0
  172.3389  -15.7881    3.6970 C   0  0  2  0  0  0  0  0  0  0  0  0
  171.7740  -16.0736    5.1039 C   0  0  0  0  0  0  0  0  0  0  0  0
  170.7388  -16.7021    5.2851 O   0  0  0  0  0  0  0  0  0  0  0  0
  171.2131  -15.2487    2.8106 C   0  0  0  0  0  0  0  0  0  0  0  0
  171.4733  -15.8811    1.4500 C   0  0  0  0  0  0  0  0  0  0  0  0
  172.0157  -17.2525    1.8064 C   0  0  0  0  0  0  0  0  0  0  0  0
  172.5710  -15.6580    6.1446 N   0  0  0  0  0  0  0  0  0  0  0  0
  172.0959  -14.8524    7.2822 C   0  0  1  0  0  0  0  0  0  0  0  0
  171.1494  -13.7099    6.8412 C   0  0  0  0  0  0  0  0  0  0  0  0
  171.8561  -12.4421    6.4401 C   0  0  0  0  0  0  0  0  0  0  0  0
  172.1076  -11.2769    7.2319 C   0  0  0  0  0  0  0  0  0  0  0  0
  171.8420  -10.9207    8.5710 C   0  0  0  0  0  0  0  0  0  0  0  0
  172.7718  -10.3526    6.4229 C   0  0  0  0  0  0  0  0  0  0  0  0
  172.9707  -10.9512    5.1995 N   0  0  0  0  0  0  0  0  0  0  0  0
  172.4243  -12.2036    5.2034 C   0  0  0  0  0  0  0  0  0  0  0  0
  173.1498   -9.0797    6.8710 C   0  0  0  0  0  0  0  0  0  0  0  0
  172.8516   -8.7483    8.1918 C   0  0  0  0  0  0  0  0  0  0  0  0
  173.2297   -7.1750    8.7727 Cl  0  0  0  0  0  0  0  0  0  0  0  0
  172.2186   -9.6504    9.0385 C   0  0  0  0  0  0  0  0  0  0  0  0
  171.4597  -15.7277    8.3873 C   0  0  0  0  0  0  0  0  0  0  0  0
  170.9769  -16.8394    8.1750 O   0  0  0  0  0  0  0  0  0  0  0  0
  171.3423  -15.1093    9.6128 N   0  0  0  0  0  0  0  0  0  0  0  0
  171.4246  -15.8416   10.8784 C   0  0  2  0  0  0  0  0  0  0  0  0
  172.7196  -15.4374   11.6309 C   0  0  0  0  0  0  0  0  0  0  0  0
  173.6372  -16.2255   11.8534 O   0  0  0  0  0  0  0  0  0  0  0  0
  171.3898  -17.3610   10.5917 C   0  0  0  0  0  0  0  0  0  0  0  0
  170.7535  -18.1574   11.7391 C   0  0  0  0  0  0  0  0  0  0  0  0
  170.4378  -17.2867   12.9529 C   0  0  0  0  0  0  0  0  0  0  0  0
  169.2494  -17.7535   13.6871 N   0  0  0  0  0  0  0  0  0  0  0  0
  169.1507  -18.9572   14.2712 C   0  0  0  0  0  0  0  0  0  0  0  0
  169.7462  -20.0386   13.7606 N   0  0  0  0  0  4  0  0  0  0  0  0
  168.4435  -19.0912   15.3963 N   0  0  0  0  0  0  0  0  0  0  0  0
  172.7297  -14.1349   12.0905 N   0  0  0  0  0  0  0  0  0  0  0  0
  172.9581  -13.8063   13.4961 C   0  0  2  0  0  0  0  0  0  0  0  0
  173.6001  -15.0119   14.2344 C   0  0  0  0  0  0  0  0  0  0  0  0
  173.5233  -16.1580   13.7921 O   0  0  0  0  0  0  0  0  0  0  0  0
  171.7834  -13.0612   14.1701 C   0  0  0  0  0  0  0  0  0  0  0  0
  171.3391  -11.6725   13.6745 C   0  0  1  0  0  0  0  0  0  0  0  0
  171.1237  -11.6448   12.1640 C   0  0  0  0  0  0  0  0  0  0  0  0
  170.1378  -11.0648   14.3989 C   0  0  0  0  0  0  0  0  0  0  0  0
  174.3175  -14.7275   15.3980 N   0  0  0  0  0  0  0  0  0  0  0  0
  175.4084  -15.6437   15.7522 C   0  0  2  0  0  0  0  0  0  0  0  0
  176.0096  -15.1547   17.0939 C   0  0  0  0  0  0  0  0  0  0  0  0
  176.2718  -13.9646   17.2925 O   0  0  0  0  0  0  0  0  0  0  0  0
  176.4837  -15.6745   14.6570 C   0  0  0  0  0  0  0  0  0  0  0  0
  176.0752  -16.3991   13.3679 C   0  0  0  0  0  0  0  0  0  0  0  0
  176.6749  -15.8038   12.0893 C   0  0  0  0  0  0  0  0  0  0  0  0
  177.7994  -16.6296   11.6036 N   0  0  0  0  0  0  0  0  0  0  0  0
  177.7419  -17.9534   11.3880 C   0  0  0  0  0  0  0  0  0  0  0  0
  176.7613  -18.5104   10.6756 N   0  0  0  0  0  4  0  0  0  0  0  0
  178.6895  -18.7473   11.8982 N   0  0  0  0  0  0  0  0  0  0  0  0
  176.2243  -16.1365   18.0428 N   0  0  0  0  0  0  0  0  0  0  0  0
  175.5537  -15.9756   19.3278 C   0  0  2  0  0  0  0  0  0  0  0  0
  176.4936  -15.8338   20.5529 C   0  0  0  0  0  0  0  0  0  0  0  0
  177.5396  -16.4599   20.6813 O   0  0  0  0  0  0  0  0  0  0  0  0
  174.5306  -17.0941   19.5868 C   0  0  0  0  0  0  0  0  0  0  0  0
  173.0946  -16.8835   19.0649 C   0  0  0  0  0  0  0  0  0  0  0  0
  172.2557  -18.1591   18.9215 C   0  0  0  0  0  0  0  0  0  0  0  0
  171.7053  -18.6436   20.2678 C   0  0  0  0  0  0  0  0  0  0  0  0
  170.5447  -19.5222   20.0880 N   0  0  0  0  0  4  0  0  0  0  0  0
  175.9653  -15.0403   21.5550 N   0  0  0  0  0  0  0  0  0  0  0  0
  176.1906  -13.5989   21.6366 C   0  0  1  0  0  0  0  0  0  0  0  0
  175.9064  -13.0104   23.0265 C   0  0  0  0  0  0  0  0  0  0  0  0
  177.6360  -13.3707   21.1372 C   0  0  0  0  0  0  0  0  0  0  0  0
  178.4636  -14.2896   21.0783 O   0  0  0  0  0  0  0  0  0  0  0  0
  174.4288  -12.8496   23.4027 C   0  0  1  0  0  0  0  0  0  0  0  0
  173.6809  -11.8021   22.5288 C   0  0  0  0  0  0  0  0  0  0  0  0
  173.3932  -13.8863   22.8828 C   0  0  0  0  0  0  0  0  0  0  0  0
  173.1508  -12.9637   21.6758 C   0  0  0  0  0  0  0  0  0  0  0  0
  177.9568  -12.1255   20.6252 N   0  0  0  0  0  0  0  0  0  0  0  0
  179.2578  -11.5328   20.9601 C   0  0  2  0  0  0  0  0  0  0  0  0
  179.3215  -11.0612   22.4120 C   0  0  0  0  0  0  0  0  0  0  0  0
  179.2464  -11.8568   23.3540 O   0  0  0  0  0  0  0  0  0  0  0  0
  179.4294  -10.3500   19.9993 C   0  0  0  0  0  0  0  0  0  0  0  0
  178.5873  -10.7564   18.8080 C   0  0  2  0  0  0  0  0  0  0  0  0
  177.3844  -11.4513   19.4602 C   0  0  0  0  0  0  0  0  0  0  0  0
  179.3084  -11.7114   18.0329 O   0  0  0  0  0  0  0  0  0  0  0  0
  179.5239   -9.7150   22.5395 N   0  0  0  0  0  0  0  0  0  0  0  0
  179.5157   -8.9823   23.8184 C   0  0  2  0  0  0  0  0  0  0  0  0
  178.4881   -9.5964   24.8020 C   0  0  0  0  0  0  0  0  0  0  0  0
  177.3417   -9.9138   24.5061 O   0  0  0  0  0  0  0  0  0  0  0  0
  179.1806   -7.5351   23.5247 C   0  0  0  0  0  0  0  0  0  0  0  0
  180.4388   -6.6822   23.5669 C   0  0  0  0  0  0  0  0  0  0  0  0
  180.2667   -5.5043   23.1628 O   0  0  0  0  0  1  0  0  0  0  0  0
  181.4832   -7.2875   23.9287 O   0  0  0  0  0  0  0  0  0  0  0  0
  178.9451   -9.7526   26.0979 N   0  0  0  0  0  0  0  0  0  0  0  0
  179.9655  -10.7402   26.4103 C   0  0  2  0  0  0  0  0  0  0  0  0
  181.0749  -10.0253   27.1960 C   0  0  0  0  0  0  0  0  0  0  0  0
  182.2537  -10.4041   27.1798 O   0  0  0  0  0  0  0  0  0  0  0  0
  180.4779  -11.4518   25.1531 C   0  0  0  0  0  0  0  0  0  0  0  0
  181.5060  -12.4042   25.4329 O   0  0  0  0  0  0  0  0  0  0  0  0
  180.6651   -8.9869   28.0064 N   0  0  0  0  0  0  0  0  0  0  0  0
  180.9799   -8.9982   29.4248 C   0  0  2  0  0  0  0  0  0  0  0  0
  182.3934   -9.5243   29.6647 C   0  0  0  0  0  0  0  0  0  0  0  0
  182.8889  -10.3634   28.9126 O   0  0  0  0  0  0  0  0  0  0  0  0
  179.9353   -9.7646   30.2601 C   0  0  0  0  0  0  0  0  0  0  0  0
  179.9605   -9.3554   31.7160 C   0  0  0  0  0  0  0  0  0  0  0  0
  179.8076  -10.3046   32.7334 C   0  0  0  0  0  0  0  0  0  0  0  0
  180.0971   -8.0030   32.0670 C   0  0  0  0  0  0  0  0  0  0  0  0
  179.7809   -9.9116   34.0683 C   0  0  0  0  0  0  0  0  0  0  0  0
  180.0638   -7.6106   33.4053 C   0  0  0  0  0  0  0  0  0  0  0  0
  179.9042   -8.5647   34.4064 C   0  0  0  0  0  0  0  0  0  0  0  0
  183.0651   -9.0381   30.7622 N   0  0  0  0  0  0  0  0  0  0  0  0
  184.2156   -8.1184   30.5741 C   0  0  2  0  0  0  0  0  0  0  0  0
  185.6064   -8.7940   30.7076 C   0  0  0  0  0  0  0  0  0  0  0  0
  186.2328   -9.2140   29.7384 O   0  0  0  0  0  0  0  0  0  0  0  0
  184.0897   -6.9440   31.5689 C   0  0  0  0  0  0  0  0  0  0  0  0
  184.1719   -5.5778   30.9117 C   0  0  0  0  0  0  0  0  0  0  0  0
  182.9706   -4.8447   30.8130 C   0  0  0  0  0  0  0  0  0  0  0  0
  182.9347   -3.6006   30.1990 C   0  0  0  0  0  0  0  0  0  0  0  0
  185.3758   -5.0194   30.4057 C   0  0  0  0  0  0  0  0  0  0  0  0
  185.3249   -3.7352   29.7980 C   0  0  0  0  0  0  0  0  0  0  0  0
  184.1058   -3.0527   29.6912 C   0  0  0  0  0  0  0  0  0  0  0  0
  186.6345   -5.6612   30.4596 C   0  0  0  0  0  0  0  0  0  0  0  0
  187.7846   -5.0574   29.9526 C   0  0  0  0  0  0  0  0  0  0  0  0
  187.7138   -3.8040   29.3628 C   0  0  0  0  0  0  0  0  0  0  0  0
  186.4929   -3.1467   29.2869 C   0  0  0  0  0  0  0  0  0  0  0  0
  186.1239   -8.8115   31.9817 N   0  0  0  0  0  0  0  0  0  0  0  0
  187.2506   -7.9768   32.4295 C   0  0  2  0  0  0  0  0  0  0  0  0
  186.9844   -6.9158   33.5245 C   0  0  0  0  0  0  0  0  0  0  0  0
  187.7935   -6.0008   33.6840 O   0  0  0  0  0  0  0  0  0  0  0  0
  188.1077   -7.3881   31.2941 C   0  0  0  0  0  0  0  0  0  0  0  0
  187.6691   -7.7962   29.8766 C   0  0  0  0  0  0  0  0  0  0  0  0
  188.5632   -7.2846   28.7373 C   0  0  0  0  0  0  0  0  0  0  0  0
  187.8094   -7.0690   27.4164 C   0  0  0  0  0  0  0  0  0  0  0  0
  187.4024   -5.6551   27.2809 N   0  0  0  0  0  4  0  0  0  0  0  0
  185.8250   -7.0350   34.2440 N   0  0  0  0  0  0  0  0  0  0  0  0
  185.7653   -7.3801   35.6755 C   0  0  2  0  0  0  0  0  0  0  0  0
  186.5280   -8.6937   35.9970 C   0  0  0  0  0  0  0  0  0  0  0  0
  187.7553   -8.7505   35.8219 O   0  0  0  0  0  0  0  0  0  0  0  0
  184.3834   -7.1044   36.2721 C   0  0  0  0  0  0  0  0  0  0  0  0
  184.2450   -6.2658   37.5410 C   0  0  0  0  0  0  0  0  0  0  0  0
  182.7520   -6.0698   37.6884 C   0  0  0  0  0  0  0  0  0  0  0  0
  182.2655   -4.9354   37.3950 O   0  0  0  0  0  1  0  0  0  0  0  0
  182.0292   -7.0861   37.8859 O   0  0  0  0  0  0  0  0  0  0  0  0
  185.8844   -9.7279   36.6608 N   0  0  0  0  0  0  0  0  0  0  0  0
  185.7446  -11.1388   36.2712 C   0  0  2  0  0  0  0  0  0  0  0  0
  184.7548  -11.4489   35.1359 C   0  0  0  0  0  0  0  0  0  0  0  0
  184.7146  -12.5102   34.5134 O   0  0  0  0  0  0  0  0  0  0  0  0
  185.2925  -11.8657   37.5474 C   0  0  0  0  0  0  0  0  0  0  0  0
  184.7164  -10.7548   38.4171 C   0  0  0  0  0  0  0  0  0  0  0  0
  185.6053   -9.5741   38.0822 C   0  0  0  0  0  0  0  0  0  0  0  0
  183.9016  -10.4246   34.8313 N   0  0  0  0  0  0  0  0  0  0  0  0
  1  2  2  0
  1  3  1  0
  1  4  1  0
  4  5  1  0
  4 10  1  0
  5  6  1  1
  5  8  1  0
  6  7  2  0
  6 11  1  0
  8  9  1  0
  9 10  1  0
 11 12  1  0
 12 13  1  6
 12 24  1  0
 13 14  1  0
 14 15  1  0
 14 19  2  0
 15 16  2  0
 15 17  1  0
 16 23  1  0
 17 18  1  0
 17 20  2  0
 18 19  1  0
 20 21  1  0
 21 22  1  0
 21 23  2  0
 24 25  2  0
 24 26  1  0
 26 27  1  0
 27 28  1  0
 27 30  1  6
 28 29  2  0
 28 37  1  0
 30 31  1  0
 31 32  1  0
 32 33  1  0
 33 34  1  0
 34 35  2  0
 34 36  1  0
 37 38  1  0
 38 39  1  0
 38 41  1  1
 39 40  2  0
 39 45  1  0
 41 42  1  0
 42 43  1  6
 42 44  1  0
 45 46  1  0
 46 47  1  0
 46 49  1  6
 47 48  2  0
 47 56  1  0
 49 50  1  0
 50 51  1  0
 51 52  1  0
 52 53  1  0
 53 54  2  0
 53 55  1  0
 56 57  1  0
 57 58  1  0
 57 60  1  1
 58 59  2  0
 58 65  1  0
 60 61  1  0
 61 62  1  0
 62 63  1  0
 63 64  1  0
 65 66  1  0
 66 67  1  1
 66 68  1  0
 70 67  1  6
 68 69  2  0
 68 74  1  0
 70 71  1  0
 70 72  1  0
 71 73  1  0
 72 73  1  0
 74 75  1  0
 74 80  1  0
 75 76  1  1
 75 78  1  0
 76 77  2  0
 76 82  1  0
 78 79  1  0
 79 80  1  0
 79 81  1  6
 82 83  1  0
 83 84  1  0
 83 86  1  6
 84 85  2  0
 84 90  1  0
 86 87  1  0
 87 88  1  0
 87 89  2  0
 90 91  1  0
 91 92  1  0
 91 94  1  6
 92 93  2  0
 92 96  1  0
 94 95  1  0
 96 97  1  0
 97 98  1  0
 97100  1  1
 98 99  2  0
 98107  1  0
100101  1  0
101102  2  0
101103  1  0
102104  1  0
103105  2  0
104106  2  0
105106  1  0
107108  1  0
108109  1  0
108111  1  1
109110  2  0
109122  1  0
111112  1  0
112113  2  0
112115  1  0
113114  1  0
114117  2  0
115116  2  0
115118  1  0
116117  1  0
116121  1  0
118119  2  0
119120  1  0
120121  2  0
122123  1  0
123124  1  0
123126  1  6
124125  2  0
124131  1  0
126127  1  0
127128  1  0
128129  1  0
129130  1  0
131132  1  0
132133  1  0
132135  1  6
133134  2  0
133140  1  0
135136  1  0
136137  1  0
137138  1  0
137139  2  0
140141  1  0
140146  1  0
141142  1  6
141144  1  0
142143  2  0
142147  1  0
144145  1  0
145146  1  0
M  CHG  6  35   1  54   1  64   1  88  -1 130   1 138  -1
M  END
$$$$
