
     RDKit          3D

 28 30  0  0  0  0  0  0  0  0999 V2000
   34.9394   22.0370   98.1423 C   0  0  0  0  0  0  0  0  0  0  0  0
   35.7132   21.1982   98.9016 C   0  0  0  0  0  0  0  0  0  0  0  0
   33.6366   21.7075   97.8457 C   0  0  0  0  0  0  0  0  0  0  0  0
   35.2319   20.0049   99.3961 C   0  0  0  0  0  0  0  0  0  0  0  0
   33.1616   20.5016   98.3495 C   0  0  0  0  0  0  0  0  0  0  0  0
   33.9357   19.6574   99.1120 C   0  0  0  0  0  0  0  0  0  0  0  0
   32.7511   22.5948   97.0176 C   0  0  0  0  0  0  0  0  0  0  0  0
   31.3409   22.2885   97.2990 N   0  0  1  0  0  4  0  0  0  0  0  0
   29.8106   20.7631   96.1065 C   0  0  0  0  0  0  0  0  0  0  0  0
   30.5942   22.0370   96.1091 C   0  0  0  0  0  0  0  0  0  0  0  0
   30.6342   19.6401   96.4918 N   0  0  0  0  0  0  0  0  0  0  0  0
   31.7916   19.9606   97.3043 C   0  0  0  0  0  0  0  0  0  0  0  0
   31.3227   21.1410   98.1681 C   0  0  0  0  0  0  0  0  0  0  0  0
   30.3912   18.3103   96.1411 C   0  0  0  0  0  0  0  0  0  0  0  0
   29.0433   17.7972   96.2502 C   0  0  0  0  0  0  0  0  0  0  0  0
   27.2381   16.8545   97.5410 C   0  0  0  0  0  0  0  0  0  0  0  0
   28.5325   17.3445   97.4467 C   0  0  0  0  0  0  0  0  0  0  0  0
   26.4703   16.8307   96.4045 C   0  0  0  0  0  0  0  0  0  0  0  0
   26.9574   17.2800   95.1848 C   0  0  0  0  0  0  0  0  0  0  0  0
   28.2561   17.7639   95.1243 C   0  0  0  0  0  0  0  0  0  0  0  0
   31.3121   17.5287   95.7278 O   0  0  0  0  0  0  0  0  0  0  0  0
   25.1386   16.3387   96.4486 N   0  0  0  0  0  4  0  0  0  0  0  0
   24.4481   16.1660   95.2912 O   0  0  0  0  0  1  0  0  0  0  0  0
   24.5797   16.0577   97.5326 O   0  0  0  0  0  0  0  0  0  0  0  0
   29.3497   17.3811   98.6061 N   0  0  0  0  0  4  0  0  0  0  0  0
   28.9474   16.8007   99.7808 O   0  0  0  0  0  1  0  0  0  0  0  0
   36.0332   19.1823  100.1566 F   0  0  0  0  0  0  0  0  0  0  0  0
   30.4608   17.9412   98.5996 O   0  0  0  0  0  0  0  0  0  0  0  0
  1  2  2  0
  1  3  1  0
  2  4  1  0
  3  5  2  0
  7  3  1  1
  4  6  2  0
  4 27  1  0
  5  6  1  0
  8  7  1  6
  8 10  1  0
  8 13  1  0
 10  9  1  6
  9 11  1  6
 12 11  1  1
 11 14  1  0
 13 12  1  6
 14 15  1  0
 14 21  2  0
 15 17  1  0
 15 20  2  0
 17 16  2  0
 16 18  1  0
 17 25  1  0
 18 19  2  0
 18 22  1  0
 19 20  1  0
 22 23  1  0
 22 24  2  0
 25 26  1  0
 25 28  2  0
M  CHG  5   8   1  22   1  23  -1  25   1  26  -1
M  END
$$$$
