
     RDKit          3D

 28 30  0  0  0  0  0  0  0  0999 V2000
   28.1686   18.0406   95.6028 C   0  0  0  0  0  0  0  0  0  0  0  0
   28.0195   16.7161   95.9231 C   0  0  0  0  0  0  0  0  0  0  0  0
   27.1698   18.9440   95.8857 C   0  0  0  0  0  0  0  0  0  0  0  0
   26.8815   16.2338   96.5334 C   0  0  0  0  0  0  0  0  0  0  0  0
   26.0265   18.4466   96.5014 C   0  0  0  0  0  0  0  0  0  0  0  0
   25.8736   17.1177   96.8242 C   0  0  0  0  0  0  0  0  0  0  0  0
   27.2884   20.4043   95.5535 C   0  0  0  0  0  0  0  0  0  0  0  0
   28.5499   20.6488   94.8391 N   0  0  1  0  0  4  0  0  0  0  0  0
   30.5847   21.8046   95.6231 C   0  0  0  0  0  0  0  0  0  0  0  0
   29.1498   21.8895   95.2100 C   0  0  0  0  0  0  0  0  0  0  0  0
   30.7846   20.7737   96.6157 N   0  0  0  0  0  0  0  0  0  0  0  0
   29.8025   19.7068   96.6185 C   0  0  0  0  0  0  0  0  0  0  0  0
   29.4257   19.5461   95.1380 C   0  0  0  0  0  0  0  0  0  0  0  0
   31.8303   20.7436   97.5408 C   0  0  0  0  0  0  0  0  0  0  0  0
   32.8203   19.6941   97.4377 C   0  0  0  0  0  0  0  0  0  0  0  0
   34.0053   17.8077   98.3602 C   0  0  0  0  0  0  0  0  0  0  0  0
   33.0538   18.8113   98.4690 C   0  0  0  0  0  0  0  0  0  0  0  0
   34.7159   17.7132   97.1907 C   0  0  0  0  0  0  0  0  0  0  0  0
   34.5030   18.5881   96.1342 C   0  0  0  0  0  0  0  0  0  0  0  0
   33.5440   19.5807   96.2751 C   0  0  0  0  0  0  0  0  0  0  0  0
   31.9476   21.6061   98.4747 O   0  0  0  0  0  0  0  0  0  0  0  0
   35.7012   16.7029   97.0295 N   0  0  0  0  0  4  0  0  0  0  0  0
   35.9882   15.8735   98.0667 O   0  0  0  0  0  1  0  0  0  0  0  0
   36.3168   16.5548   95.9499 O   0  0  0  0  0  0  0  0  0  0  0  0
   32.3036   18.9330   99.6673 N   0  0  0  0  0  4  0  0  0  0  0  0
   32.6393   18.2276  100.7936 O   0  0  0  0  0  1  0  0  0  0  0  0
   26.7601   14.8973   96.8435 F   0  0  0  0  0  0  0  0  0  0  0  0
   31.3138   19.6837   99.7401 O   0  0  0  0  0  0  0  0  0  0  0  0
  1  2  2  0
  1  3  1  0
  2  4  1  0
  3  5  2  0
  7  3  1  1
  4  6  2  0
  4 27  1  0
  5  6  1  0
  8  7  1  1
  8 10  1  0
  8 13  1  0
 10  9  1  6
  9 11  1  6
 12 11  1  1
 11 14  1  0
 13 12  1  6
 14 15  1  0
 14 21  2  0
 15 17  1  0
 15 20  2  0
 17 16  2  0
 16 18  1  0
 17 25  1  0
 18 19  2  0
 18 22  1  0
 19 20  1  0
 22 23  1  0
 22 24  2  0
 25 26  1  0
 25 28  2  0
M  CHG  5   8   1  22   1  23  -1  25   1  26  -1
M  END
$$$$
