
     RDKit          3D

 28 30  0  0  0  0  0  0  0  0999 V2000
   27.5392   18.3648   94.7746 C   0  0  0  0  0  0  0  0  0  0  0  0
   27.3600   17.0915   95.2494 C   0  0  0  0  0  0  0  0  0  0  0  0
   27.9242   19.3782   95.6221 C   0  0  0  0  0  0  0  0  0  0  0  0
   27.5535   16.7705   96.5759 C   0  0  0  0  0  0  0  0  0  0  0  0
   28.1165   19.0433   96.9580 C   0  0  0  0  0  0  0  0  0  0  0  0
   27.9375   17.7661   97.4379 C   0  0  0  0  0  0  0  0  0  0  0  0
   28.1327   20.7883   95.1474 C   0  0  0  0  0  0  0  0  0  0  0  0
   29.1426   21.4493   95.9869 N   0  0  1  0  0  4  0  0  0  0  0  0
   30.8933   20.4395   97.4033 C   0  0  0  0  0  0  0  0  0  0  0  0
   29.4401   20.7011   97.1652 C   0  0  0  0  0  0  0  0  0  0  0  0
   31.5278   19.8939   96.2253 N   0  0  0  0  0  0  0  0  0  0  0  0
   30.8841   20.2069   94.9642 C   0  0  0  0  0  0  0  0  0  0  0  0
   30.3202   21.6199   95.1767 C   0  0  0  0  0  0  0  0  0  0  0  0
   32.6836   19.1101   96.2276 C   0  0  0  0  0  0  0  0  0  0  0  0
   33.3354   18.8356   97.4894 C   0  0  0  0  0  0  0  0  0  0  0  0
   35.2407   18.0937   98.7672 C   0  0  0  0  0  0  0  0  0  0  0  0
   34.6242   18.3534   97.5519 C   0  0  0  0  0  0  0  0  0  0  0  0
   34.5309   18.3301   99.9170 C   0  0  0  0  0  0  0  0  0  0  0  0
   33.2309   18.8157   99.8857 C   0  0  0  0  0  0  0  0  0  0  0  0
   32.6431   19.0651   98.6540 C   0  0  0  0  0  0  0  0  0  0  0  0
   33.1885   18.6258   95.1598 O   0  0  0  0  0  0  0  0  0  0  0  0
   35.1174   18.0804  101.1863 N   0  0  0  0  0  4  0  0  0  0  0  0
   34.4784   18.4900  102.3133 O   0  0  0  0  0  1  0  0  0  0  0  0
   36.2149   17.4888  101.2957 O   0  0  0  0  0  0  0  0  0  0  0  0
   35.3344   18.1183   96.3462 N   0  0  0  0  0  4  0  0  0  0  0  0
   36.5855   17.5585   96.3531 O   0  0  0  0  0  1  0  0  0  0  0  0
   27.3659   15.4818   97.0242 F   0  0  0  0  0  0  0  0  0  0  0  0
   34.8484   18.4115   95.2389 O   0  0  0  0  0  0  0  0  0  0  0  0
  1  2  2  0
  1  3  1  0
  2  4  1  0
  3  5  2  0
  7  3  1  1
  4  6  2  0
  4 27  1  0
  5  6  1  0
  8  7  1  6
  8 10  1  0
  8 13  1  0
 10  9  1  6
  9 11  1  6
 12 11  1  1
 11 14  1  0
 13 12  1  6
 14 15  1  0
 14 21  2  0
 15 17  1  0
 15 20  2  0
 17 16  2  0
 16 18  1  0
 17 25  1  0
 18 19  2  0
 18 22  1  0
 19 20  1  0
 22 23  1  0
 22 24  2  0
 25 26  1  0
 25 28  2  0
M  CHG  5   8   1  22   1  23  -1  25   1  26  -1
M  END
$$$$
