
     RDKit          3D

 28 30  0  0  0  0  0  0  0  0999 V2000
   26.3366   16.6085   97.4972 C   0  0  0  0  0  0  0  0  0  0  0  0
   25.2599   16.1411   96.7936 C   0  0  0  0  0  0  0  0  0  0  0  0
   27.0550   17.6886   97.0112 C   0  0  0  0  0  0  0  0  0  0  0  0
   24.9109   16.7491   95.6212 C   0  0  0  0  0  0  0  0  0  0  0  0
   26.7105   18.3082   95.8296 C   0  0  0  0  0  0  0  0  0  0  0  0
   25.6213   17.8332   95.1209 C   0  0  0  0  0  0  0  0  0  0  0  0
   28.2276   18.2095   97.7640 C   0  0  0  0  0  0  0  0  0  0  0  0
   29.0436   19.0785   96.9409 N   0  0  1  0  0  4  0  0  0  0  0  0
   31.4073   19.7459   97.1694 C   0  0  0  0  0  0  0  0  0  0  0  0
   30.0026   19.8258   97.6779 C   0  0  0  0  0  0  0  0  0  0  0  0
   31.5083   19.6411   95.7467 N   0  0  0  0  0  0  0  0  0  0  0  0
   30.3645   19.2588   94.9713 C   0  0  0  0  0  0  0  0  0  0  0  0
   29.5730   18.2928   95.8651 C   0  0  0  0  0  0  0  0  0  0  0  0
   32.7235   19.9180   95.0964 C   0  0  0  0  0  0  0  0  0  0  0  0
   34.0256   19.5663   95.6103 C   0  0  0  0  0  0  0  0  0  0  0  0
   35.3738   18.1982   97.0775 C   0  0  0  0  0  0  0  0  0  0  0  0
   34.1425   18.5822   96.5572 C   0  0  0  0  0  0  0  0  0  0  0  0
   36.5390   18.7981   96.6581 C   0  0  0  0  0  0  0  0  0  0  0  0
   36.4240   19.7990   95.6960 C   0  0  0  0  0  0  0  0  0  0  0  0
   35.1948   20.1663   95.1915 C   0  0  0  0  0  0  0  0  0  0  0  0
   32.7120   20.5188   93.9745 O   0  0  0  0  0  0  0  0  0  0  0  0
   37.8082   18.4196   97.1779 N   0  0  0  0  0  4  0  0  0  0  0  0
   38.9181   19.0479   96.6823 O   0  0  0  0  0  1  0  0  0  0  0  0
   37.8876   17.5449   98.0536 O   0  0  0  0  0  0  0  0  0  0  0  0
   32.9816   17.9259   97.0444 N   0  0  0  0  0  4  0  0  0  0  0  0
   32.9500   17.5200   98.3669 O   0  0  0  0  0  1  0  0  0  0  0  0
   23.8359   16.2565   94.9512 F   0  0  0  0  0  0  0  0  0  0  0  0
   32.0339   17.7389   96.2708 O   0  0  0  0  0  0  0  0  0  0  0  0
  1  2  2  0
  1  3  1  0
  2  4  1  0
  3  5  2  0
  3  7  1  0
  4  6  2  0
  4 27  1  0
  5  6  1  0
  8  7  1  1
  8 10  1  0
  8 13  1  0
 10  9  1  0
  9 11  1  0
 11 12  1  0
 11 14  1  0
 12 13  1  0
 14 15  1  0
 14 21  2  0
 15 17  1  0
 15 20  2  0
 17 16  2  0
 16 18  1  0
 17 25  1  0
 18 19  2  0
 18 22  1  0
 19 20  1  0
 22 23  1  0
 22 24  2  0
 25 26  1  0
 25 28  2  0
M  CHG  5   8   1  22   1  23  -1  25   1  26  -1
M  END
$$$$
