
     RDKit          3D

 28 30  0  0  0  0  0  0  0  0999 V2000
   26.7573   17.0063   96.2132 C   0  0  0  0  0  0  0  0  0  0  0  0
   25.7139   16.1331   96.3598 C   0  0  0  0  0  0  0  0  0  0  0  0
   26.5514   18.2172   95.5728 C   0  0  0  0  0  0  0  0  0  0  0  0
   24.4840   16.4712   95.8710 C   0  0  0  0  0  0  0  0  0  0  0  0
   25.3144   18.5669   95.0764 C   0  0  0  0  0  0  0  0  0  0  0  0
   24.2617   17.6817   95.2264 C   0  0  0  0  0  0  0  0  0  0  0  0
   27.6748   19.1781   95.4056 C   0  0  0  0  0  0  0  0  0  0  0  0
   28.8547   18.7460   96.1264 N   0  0  1  0  0  4  0  0  0  0  0  0
   31.2475   19.0185   95.5920 C   0  0  0  0  0  0  0  0  0  0  0  0
   29.9345   18.3729   95.2800 C   0  0  0  0  0  0  0  0  0  0  0  0
   31.4668   19.2521   96.9858 N   0  0  0  0  0  0  0  0  0  0  0  0
   30.3643   19.2210   97.9018 C   0  0  0  0  0  0  0  0  0  0  0  0
   29.1607   19.7469   97.1060 C   0  0  0  0  0  0  0  0  0  0  0  0
   32.7617   19.5063   97.4704 C   0  0  0  0  0  0  0  0  0  0  0  0
   33.9714   18.9703   96.8939 C   0  0  0  0  0  0  0  0  0  0  0  0
   36.2793   19.2909   96.2511 C   0  0  0  0  0  0  0  0  0  0  0  0
   35.0860   19.7611   96.7890 C   0  0  0  0  0  0  0  0  0  0  0  0
   36.3908   17.9970   95.7963 C   0  0  0  0  0  0  0  0  0  0  0  0
   35.2598   17.1904   95.9010 C   0  0  0  0  0  0  0  0  0  0  0  0
   34.0855   17.6738   96.4373 C   0  0  0  0  0  0  0  0  0  0  0  0
   32.9151   20.2575   98.4862 O   0  0  0  0  0  0  0  0  0  0  0  0
   37.6024   17.4970   95.2429 N   0  0  0  0  0  4  0  0  0  0  0  0
   38.7547   18.1939   95.4860 O   0  0  0  0  0  1  0  0  0  0  0  0
   37.5961   16.4595   94.5635 O   0  0  0  0  0  0  0  0  0  0  0  0
   35.0417   21.1103   97.2289 N   0  0  0  0  0  4  0  0  0  0  0  0
   36.2324   21.7864   97.4291 O   0  0  0  0  0  1  0  0  0  0  0  0
   23.4728   15.5782   96.0357 F   0  0  0  0  0  0  0  0  0  0  0  0
   33.9391   21.6395   97.4180 O   0  0  0  0  0  0  0  0  0  0  0  0
  1  2  2  0
  1  3  1  0
  2  4  1  0
  3  5  2  0
  3  7  1  0
  4  6  2  0
  4 27  1  0
  5  6  1  0
  8  7  1  6
  8 10  1  0
  8 13  1  0
 10  9  1  0
  9 11  1  0
 11 12  1  0
 11 14  1  0
 12 13  1  0
 14 15  1  0
 14 21  2  0
 15 17  1  0
 15 20  2  0
 17 16  2  0
 16 18  1  0
 17 25  1  0
 18 19  2  0
 18 22  1  0
 19 20  1  0
 22 23  1  0
 22 24  2  0
 25 26  1  0
 25 28  2  0
M  CHG  5   8   1  22   1  23  -1  25   1  26  -1
M  END
$$$$
