
     RDKit          3D

 28 30  0  0  0  0  0  0  0  0999 V2000
   27.2831   17.3480   95.1793 C   0  0  0  0  0  0  0  0  0  0  0  0
   26.9448   16.0538   95.4680 C   0  0  0  0  0  0  0  0  0  0  0  0
   26.5262   18.3853   95.6989 C   0  0  0  0  0  0  0  0  0  0  0  0
   25.8639   15.8061   96.2656 C   0  0  0  0  0  0  0  0  0  0  0  0
   25.4342   18.1452   96.5044 C   0  0  0  0  0  0  0  0  0  0  0  0
   25.0950   16.8356   96.7943 C   0  0  0  0  0  0  0  0  0  0  0  0
   26.8807   19.7980   95.3955 C   0  0  0  0  0  0  0  0  0  0  0  0
   28.3014   19.9493   95.1566 N   0  0  1  0  0  4  0  0  0  0  0  0
   30.0055   21.2353   96.3924 C   0  0  0  0  0  0  0  0  0  0  0  0
   28.8035   21.2339   95.5018 C   0  0  0  0  0  0  0  0  0  0  0  0
   30.9018   20.1441   96.1655 N   0  0  0  0  0  0  0  0  0  0  0  0
   30.4604   18.9915   95.4360 C   0  0  0  0  0  0  0  0  0  0  0  0
   28.9701   18.8426   95.7756 C   0  0  0  0  0  0  0  0  0  0  0  0
   32.2214   20.1941   96.6474 C   0  0  0  0  0  0  0  0  0  0  0  0
   33.2166   19.1746   96.4161 C   0  0  0  0  0  0  0  0  0  0  0  0
   34.2868   17.1256   97.1220 C   0  0  0  0  0  0  0  0  0  0  0  0
   33.3512   18.1386   97.3033 C   0  0  0  0  0  0  0  0  0  0  0  0
   35.1258   17.1223   96.0314 C   0  0  0  0  0  0  0  0  0  0  0  0
   34.9921   18.1740   95.1277 C   0  0  0  0  0  0  0  0  0  0  0  0
   34.0588   19.1694   95.3238 C   0  0  0  0  0  0  0  0  0  0  0  0
   32.5994   21.1936   97.3387 O   0  0  0  0  0  0  0  0  0  0  0  0
   36.0892   16.0953   95.8280 N   0  0  0  0  0  4  0  0  0  0  0  0
   35.7583   14.8214   96.2025 O   0  0  0  0  0  1  0  0  0  0  0  0
   37.1905   16.3642   95.3250 O   0  0  0  0  0  0  0  0  0  0  0  0
   32.5258   18.0819   98.4571 N   0  0  0  0  0  4  0  0  0  0  0  0
   32.8967   17.2551   99.5029 O   0  0  0  0  0  1  0  0  0  0  0  0
   25.5594   14.5082   96.5297 F   0  0  0  0  0  0  0  0  0  0  0  0
   31.5011   18.7750   98.4915 O   0  0  0  0  0  0  0  0  0  0  0  0
  1  2  2  0
  1  3  1  0
  2  4  1  0
  3  5  2  0
  3  7  1  0
  4  6  2  0
  4 27  1  0
  5  6  1  0
  8  7  1  1
  8 10  1  0
  8 13  1  0
 10  9  1  0
  9 11  1  0
 11 12  1  0
 11 14  1  0
 12 13  1  0
 14 15  1  0
 14 21  2  0
 15 17  1  0
 15 20  2  0
 17 16  2  0
 16 18  1  0
 17 25  1  0
 18 19  2  0
 18 22  1  0
 19 20  1  0
 22 23  1  0
 22 24  2  0
 25 26  1  0
 25 28  2  0
M  CHG  5   8   1  22   1  23  -1  25   1  26  -1
M  END
$$$$
