
     RDKit          3D

 28 30  0  0  0  0  0  0  0  0999 V2000
   26.8879   16.9353   95.8781 C   0  0  0  0  0  0  0  0  0  0  0  0
   25.9754   15.9208   95.7741 C   0  0  0  0  0  0  0  0  0  0  0  0
   26.4516   18.2239   96.1388 C   0  0  0  0  0  0  0  0  0  0  0  0
   24.6467   16.1966   95.9296 C   0  0  0  0  0  0  0  0  0  0  0  0
   25.1134   18.5117   96.2972 C   0  0  0  0  0  0  0  0  0  0  0  0
   24.1935   17.4836   96.1915 C   0  0  0  0  0  0  0  0  0  0  0  0
   27.4304   19.3382   96.2556 C   0  0  0  0  0  0  0  0  0  0  0  0
   28.7946   18.8561   96.1858 N   0  0  1  0  0  4  0  0  0  0  0  0
   30.7596   19.7734   95.0102 C   0  0  0  0  0  0  0  0  0  0  0  0
   29.4235   19.1048   94.9352 C   0  0  0  0  0  0  0  0  0  0  0  0
   31.5373   19.3980   96.1502 N   0  0  0  0  0  0  0  0  0  0  0  0
   30.9093   18.7599   97.2700 C   0  0  0  0  0  0  0  0  0  0  0  0
   29.4943   19.3533   97.3340 C   0  0  0  0  0  0  0  0  0  0  0  0
   32.9212   19.6436   96.1808 C   0  0  0  0  0  0  0  0  0  0  0  0
   33.7806   19.3478   97.3020 C   0  0  0  0  0  0  0  0  0  0  0  0
   35.5610   18.0189   98.2541 C   0  0  0  0  0  0  0  0  0  0  0  0
   34.7024   18.3379   97.2074 C   0  0  0  0  0  0  0  0  0  0  0  0
   35.5192   18.7124   99.4418 C   0  0  0  0  0  0  0  0  0  0  0  0
   34.5831   19.7393   99.5417 C   0  0  0  0  0  0  0  0  0  0  0  0
   33.7403   20.0414   98.4935 C   0  0  0  0  0  0  0  0  0  0  0  0
   33.4890   20.1614   95.1663 O   0  0  0  0  0  0  0  0  0  0  0  0
   36.3888   18.4016  100.5241 N   0  0  0  0  0  4  0  0  0  0  0  0
   37.7355   18.5410  100.3259 O   0  0  0  0  0  1  0  0  0  0  0  0
   35.9231   18.0174  101.6075 O   0  0  0  0  0  0  0  0  0  0  0  0
   34.7958   17.5729   96.0150 N   0  0  0  0  0  4  0  0  0  0  0  0
   35.9647   16.8784   95.7575 O   0  0  0  0  0  1  0  0  0  0  0  0
   23.7711   15.1630   95.8194 F   0  0  0  0  0  0  0  0  0  0  0  0
   33.8278   17.5502   95.2442 O   0  0  0  0  0  0  0  0  0  0  0  0
  1  2  2  0
  1  3  1  0
  2  4  1  0
  3  5  2  0
  3  7  1  0
  4  6  2  0
  4 27  1  0
  5  6  1  0
  8  7  1  6
  8 10  1  0
  8 13  1  0
 10  9  1  0
  9 11  1  0
 11 12  1  0
 11 14  1  0
 12 13  1  0
 14 15  1  0
 14 21  2  0
 15 17  1  0
 15 20  2  0
 17 16  2  0
 16 18  1  0
 17 25  1  0
 18 19  2  0
 18 22  1  0
 19 20  1  0
 22 23  1  0
 22 24  2  0
 25 26  1  0
 25 28  2  0
M  CHG  5   8   1  22   1  23  -1  25   1  26  -1
M  END
$$$$
