
     RDKit          3D

 28 30  0  0  0  0  0  0  0  0999 V2000
   27.3553   17.5760   96.2051 C   0  0  0  0  0  0  0  0  0  0  0  0
   26.6851   16.4532   96.6167 C   0  0  0  0  0  0  0  0  0  0  0  0
   26.6832   18.7628   96.0230 C   0  0  0  0  0  0  0  0  0  0  0  0
   25.3289   16.4592   96.8636 C   0  0  0  0  0  0  0  0  0  0  0  0
   25.3156   18.7573   96.2748 C   0  0  0  0  0  0  0  0  0  0  0  0
   24.6398   17.6322   96.6880 C   0  0  0  0  0  0  0  0  0  0  0  0
   27.3751   20.0182   95.5733 C   0  0  0  0  0  0  0  0  0  0  0  0
   28.6542   19.6768   94.9337 N   0  0  1  0  0  4  0  0  0  0  0  0
   30.9524   20.0329   95.7596 C   0  0  0  0  0  0  0  0  0  0  0  0
   29.6801   20.6210   95.2378 C   0  0  0  0  0  0  0  0  0  0  0  0
   30.6993   19.1190   96.8498 N   0  0  0  0  0  0  0  0  0  0  0  0
   29.3780   18.5222   96.8742 C   0  0  0  0  0  0  0  0  0  0  0  0
   29.0170   18.3605   95.3899 C   0  0  0  0  0  0  0  0  0  0  0  0
   31.6186   18.7870   97.8474 C   0  0  0  0  0  0  0  0  0  0  0  0
   33.0311   18.8972   97.5562 C   0  0  0  0  0  0  0  0  0  0  0  0
   35.1446   17.9162   96.9363 C   0  0  0  0  0  0  0  0  0  0  0  0
   33.7905   17.8000   97.2142 C   0  0  0  0  0  0  0  0  0  0  0  0
   35.7164   19.1608   97.0105 C   0  0  0  0  0  0  0  0  0  0  0  0
   34.9770   20.2848   97.3524 C   0  0  0  0  0  0  0  0  0  0  0  0
   33.6250   20.1345   97.6244 C   0  0  0  0  0  0  0  0  0  0  0  0
   31.2618   18.3898   99.0070 O   0  0  0  0  0  0  0  0  0  0  0  0
   37.0992   19.3327   96.7351 N   0  0  0  0  0  4  0  0  0  0  0  0
   37.6384   20.5796   96.7583 O   0  0  0  0  0  1  0  0  0  0  0  0
   37.8400   18.3595   96.4697 O   0  0  0  0  0  0  0  0  0  0  0  0
   33.1721   16.5247   97.1453 N   0  0  0  0  0  4  0  0  0  0  0  0
   31.8502   16.3905   96.8085 O   0  0  0  0  0  1  0  0  0  0  0  0
   24.6824   15.3152   97.2764 F   0  0  0  0  0  0  0  0  0  0  0  0
   33.8061   15.4819   97.3881 O   0  0  0  0  0  0  0  0  0  0  0  0
  1  2  2  0
  1  3  1  0
  2  4  1  0
  3  5  2  0
  7  3  1  1
  4  6  2  0
  4 27  1  0
  5  6  1  0
  8  7  1  1
  8 10  1  0
  8 13  1  0
 10  9  1  6
  9 11  1  6
 12 11  1  1
 11 14  1  0
 13 12  1  6
 14 15  1  0
 14 21  2  0
 15 17  1  0
 15 20  2  0
 17 16  2  0
 16 18  1  0
 17 25  1  0
 18 19  2  0
 18 22  1  0
 19 20  1  0
 22 23  1  0
 22 24  2  0
 25 26  1  0
 25 28  2  0
M  CHG  5   8   1  22   1  23  -1  25   1  26  -1
M  END
$$$$
