
     RDKit          3D

 28 30  0  0  0  0  0  0  0  0999 V2000
   27.5990   17.6335   95.9714 C   0  0  0  0  0  0  0  0  0  0  0  0
   26.8463   16.5628   96.3790 C   0  0  0  0  0  0  0  0  0  0  0  0
   27.0017   18.8420   95.6950 C   0  0  0  0  0  0  0  0  0  0  0  0
   25.4785   16.6440   96.5290 C   0  0  0  0  0  0  0  0  0  0  0  0
   25.6216   18.9125   95.8497 C   0  0  0  0  0  0  0  0  0  0  0  0
   24.8631   17.8397   96.2586 C   0  0  0  0  0  0  0  0  0  0  0  0
   27.7854   20.0424   95.2457 C   0  0  0  0  0  0  0  0  0  0  0  0
   29.1254   19.6238   94.8087 N   0  0  1  0  0  4  0  0  0  0  0  0
   31.3281   20.5276   95.4580 C   0  0  0  0  0  0  0  0  0  0  0  0
   30.0357   20.7200   94.7304 C   0  0  0  0  0  0  0  0  0  0  0  0
   31.1049   20.0884   96.8164 N   0  0  0  0  0  0  0  0  0  0  0  0
   29.8488   19.4049   97.0562 C   0  0  0  0  0  0  0  0  0  0  0  0
   29.5887   18.6386   95.7505 C   0  0  0  0  0  0  0  0  0  0  0  0
   31.9950   20.2761   97.8761 C   0  0  0  0  0  0  0  0  0  0  0  0
   33.3735   19.8725   97.7063 C   0  0  0  0  0  0  0  0  0  0  0  0
   35.0511   18.1794   97.3420 C   0  0  0  0  0  0  0  0  0  0  0  0
   33.7259   18.5563   97.5042 C   0  0  0  0  0  0  0  0  0  0  0  0
   36.0126   19.1567   97.3880 C   0  0  0  0  0  0  0  0  0  0  0  0
   35.6882   20.4912   97.5903 C   0  0  0  0  0  0  0  0  0  0  0  0
   34.3535   20.8349   97.7489 C   0  0  0  0  0  0  0  0  0  0  0  0
   31.6403   20.7900   98.9895 O   0  0  0  0  0  0  0  0  0  0  0  0
   37.3837   18.8224   97.2274 N   0  0  0  0  0  4  0  0  0  0  0  0
   38.3133   19.8115   97.1680 O   0  0  0  0  0  1  0  0  0  0  0  0
   37.7616   17.6326   97.1386 O   0  0  0  0  0  0  0  0  0  0  0  0
   32.7100   17.5667   97.4611 N   0  0  0  0  0  4  0  0  0  0  0  0
   32.4404   16.8709   96.3113 O   0  0  0  0  0  1  0  0  0  0  0  0
   24.7482   15.5510   96.9404 F   0  0  0  0  0  0  0  0  0  0  0  0
   32.0264   17.2941   98.4645 O   0  0  0  0  0  0  0  0  0  0  0  0
  1  2  2  0
  1  3  1  0
  2  4  1  0
  3  5  2  0
  7  3  1  1
  4  6  2  0
  4 27  1  0
  5  6  1  0
  8  7  1  1
  8 10  1  0
  8 13  1  0
 10  9  1  6
  9 11  1  6
 12 11  1  1
 11 14  1  0
 13 12  1  6
 14 15  1  0
 14 21  2  0
 15 17  1  0
 15 20  2  0
 17 16  2  0
 16 18  1  0
 17 25  1  0
 18 19  2  0
 18 22  1  0
 19 20  1  0
 22 23  1  0
 22 24  2  0
 25 26  1  0
 25 28  2  0
M  CHG  5   8   1  22   1  23  -1  25   1  26  -1
M  END
$$$$
