
     RDKit          3D

 28 30  0  0  0  0  0  0  0  0999 V2000
   34.5131   19.2564   95.2432 C   0  0  0  0  0  0  0  0  0  0  0  0
   35.5614   18.4762   94.8293 C   0  0  0  0  0  0  0  0  0  0  0  0
   33.6790   18.8279   96.2503 C   0  0  0  0  0  0  0  0  0  0  0  0
   35.8258   17.2460   95.3923 C   0  0  0  0  0  0  0  0  0  0  0  0
   33.9548   17.5856   96.8109 C   0  0  0  0  0  0  0  0  0  0  0  0
   35.0062   16.7999   96.3978 C   0  0  0  0  0  0  0  0  0  0  0  0
   32.5181   19.6481   96.7368 C   0  0  0  0  0  0  0  0  0  0  0  0
   31.5282   18.7723   97.3807 N   0  0  1  0  0  4  0  0  0  0  0  0
   29.0923   19.0877   97.6204 C   0  0  0  0  0  0  0  0  0  0  0  0
   30.4756   19.5100   98.0009 C   0  0  0  0  0  0  0  0  0  0  0  0
   28.9437   19.0101   96.1852 N   0  0  0  0  0  0  0  0  0  0  0  0
   30.1676   18.7927   95.4387 C   0  0  0  0  0  0  0  0  0  0  0  0
   31.0100   17.8984   96.3608 C   0  0  0  0  0  0  0  0  0  0  0  0
   27.7342   19.1279   95.4970 C   0  0  0  0  0  0  0  0  0  0  0  0
   26.5370   18.5794   96.0954 C   0  0  0  0  0  0  0  0  0  0  0  0
   25.3283   16.7636   97.1229 C   0  0  0  0  0  0  0  0  0  0  0  0
   26.4813   17.2803   96.5500 C   0  0  0  0  0  0  0  0  0  0  0  0
   24.2338   17.5838   97.2277 C   0  0  0  0  0  0  0  0  0  0  0  0
   24.2597   18.8970   96.7787 C   0  0  0  0  0  0  0  0  0  0  0  0
   25.4284   19.3831   96.2106 C   0  0  0  0  0  0  0  0  0  0  0  0
   27.6428   19.7009   94.3598 O   0  0  0  0  0  0  0  0  0  0  0  0
   23.0294   17.1024   97.8067 N   0  0  0  0  0  4  0  0  0  0  0  0
   21.8416   17.6487   97.4370 O   0  0  0  0  0  1  0  0  0  0  0  0
   23.0327   16.1818   98.6546 O   0  0  0  0  0  0  0  0  0  0  0  0
   27.6290   16.4549   96.4286 N   0  0  0  0  0  4  0  0  0  0  0  0
   27.7206   15.2587   97.0917 O   0  0  0  0  0  1  0  0  0  0  0  0
   36.8868   16.4840   94.9556 F   0  0  0  0  0  0  0  0  0  0  0  0
   28.5943   16.7859   95.7165 O   0  0  0  0  0  0  0  0  0  0  0  0
  1  2  2  0
  1  3  1  0
  2  4  1  0
  3  5  2  0
  7  3  1  1
  4  6  2  0
  4 27  1  0
  5  6  1  0
  8  7  1  6
  8 10  1  0
  8 13  1  0
 10  9  1  6
  9 11  1  6
 12 11  1  1
 11 14  1  0
 13 12  1  6
 14 15  1  0
 14 21  2  0
 15 17  1  0
 15 20  2  0
 17 16  2  0
 16 18  1  0
 17 25  1  0
 18 19  2  0
 18 22  1  0
 19 20  1  0
 22 23  1  0
 22 24  2  0
 25 26  1  0
 25 28  2  0
M  CHG  5   8   1  22   1  23  -1  25   1  26  -1
M  END
$$$$
