
     RDKit          3D

 28 30  0  0  0  0  0  0  0  0999 V2000
   27.0465   17.3210   96.1434 C   0  0  0  0  0  0  0  0  0  0  0  0
   26.1495   16.4578   95.5752 C   0  0  0  0  0  0  0  0  0  0  0  0
   26.5911   18.3348   96.9702 C   0  0  0  0  0  0  0  0  0  0  0  0
   24.8169   16.6107   95.8336 C   0  0  0  0  0  0  0  0  0  0  0  0
   25.2489   18.4970   97.2366 C   0  0  0  0  0  0  0  0  0  0  0  0
   24.3447   17.6224   96.6606 C   0  0  0  0  0  0  0  0  0  0  0  0
   27.5529   19.2814   97.5965 C   0  0  0  0  0  0  0  0  0  0  0  0
   28.5197   19.7699   96.6346 N   0  0  1  0  0  4  0  0  0  0  0  0
   30.9830   19.8484   96.7379 C   0  0  0  0  0  0  0  0  0  0  0  0
   29.6670   20.3617   97.2303 C   0  0  0  0  0  0  0  0  0  0  0  0
   30.9890   19.4899   95.3534 N   0  0  0  0  0  0  0  0  0  0  0  0
   29.7517   19.2864   94.6584 C   0  0  0  0  0  0  0  0  0  0  0  0
   28.7877   18.7108   95.7063 C   0  0  0  0  0  0  0  0  0  0  0  0
   32.2035   19.3413   94.6612 C   0  0  0  0  0  0  0  0  0  0  0  0
   33.4962   19.2226   95.2922 C   0  0  0  0  0  0  0  0  0  0  0  0
   35.2003   17.8195   96.2769 C   0  0  0  0  0  0  0  0  0  0  0  0
   33.9583   17.9901   95.6746 C   0  0  0  0  0  0  0  0  0  0  0  0
   36.0256   18.8940   96.5167 C   0  0  0  0  0  0  0  0  0  0  0  0
   35.5590   20.1483   96.1297 C   0  0  0  0  0  0  0  0  0  0  0  0
   34.3251   20.2983   95.5338 C   0  0  0  0  0  0  0  0  0  0  0  0
   32.2002   19.3043   93.3891 O   0  0  0  0  0  0  0  0  0  0  0  0
   37.2995   18.7404   97.1315 N   0  0  0  0  0  4  0  0  0  0  0  0
   37.9981   19.8723   97.4523 O   0  0  0  0  0  1  0  0  0  0  0  0
   37.7476   17.6073   97.3625 O   0  0  0  0  0  0  0  0  0  0  0  0
   33.1564   16.8370   95.4675 N   0  0  0  0  0  4  0  0  0  0  0  0
   31.8615   16.8283   95.9553 O   0  0  0  0  0  1  0  0  0  0  0  0
   23.9571   15.7341   95.2512 F   0  0  0  0  0  0  0  0  0  0  0  0
   33.6407   15.8764   94.8556 O   0  0  0  0  0  0  0  0  0  0  0  0
  1  2  2  0
  1  3  1  0
  2  4  1  0
  3  5  2  0
  3  7  1  0
  4  6  2  0
  4 27  1  0
  5  6  1  0
  8  7  1  1
  8 10  1  0
  8 13  1  0
 10  9  1  0
  9 11  1  0
 11 12  1  0
 11 14  1  0
 12 13  1  0
 14 15  1  0
 14 21  2  0
 15 17  1  0
 15 20  2  0
 17 16  2  0
 16 18  1  0
 17 25  1  0
 18 19  2  0
 18 22  1  0
 19 20  1  0
 22 23  1  0
 22 24  2  0
 25 26  1  0
 25 28  2  0
M  CHG  5   8   1  22   1  23  -1  25   1  26  -1
M  END
$$$$
