
     RDKit          3D

 28 30  0  0  0  0  0  0  0  0999 V2000
   28.6162   18.7421   96.2999 C   0  0  0  0  0  0  0  0  0  0  0  0
   28.3242   17.5154   96.8376 C   0  0  0  0  0  0  0  0  0  0  0  0
   27.7971   19.2984   95.3443 C   0  0  0  0  0  0  0  0  0  0  0  0
   27.2151   16.7927   96.4534 C   0  0  0  0  0  0  0  0  0  0  0  0
   26.6813   18.5606   94.9642 C   0  0  0  0  0  0  0  0  0  0  0  0
   26.3853   17.3291   95.5019 C   0  0  0  0  0  0  0  0  0  0  0  0
   28.0766   20.6392   94.7269 C   0  0  0  0  0  0  0  0  0  0  0  0
   28.7225   21.5147   95.7158 N   0  0  1  0  0  4  0  0  0  0  0  0
   30.3178   20.9309   97.5060 C   0  0  0  0  0  0  0  0  0  0  0  0
   28.9242   20.8601   96.9678 C   0  0  0  0  0  0  0  0  0  0  0  0
   31.2857   20.5323   96.5099 N   0  0  0  0  0  0  0  0  0  0  0  0
   30.8653   20.6850   95.1305 C   0  0  0  0  0  0  0  0  0  0  0  0
   29.9769   21.9380   95.1504 C   0  0  0  0  0  0  0  0  0  0  0  0
   32.5577   20.0261   96.7856 C   0  0  0  0  0  0  0  0  0  0  0  0
   32.7861   19.3725   98.0555 C   0  0  0  0  0  0  0  0  0  0  0  0
   33.1918   17.3936   99.3719 C   0  0  0  0  0  0  0  0  0  0  0  0
   32.9730   18.0110   98.1491 C   0  0  0  0  0  0  0  0  0  0  0  0
   33.2181   18.1773  100.4975 C   0  0  0  0  0  0  0  0  0  0  0  0
   33.0330   19.5516  100.4348 C   0  0  0  0  0  0  0  0  0  0  0  0
   32.8165   20.1381   99.1963 C   0  0  0  0  0  0  0  0  0  0  0  0
   33.5279   20.1174   95.9609 O   0  0  0  0  0  0  0  0  0  0  0  0
   33.4387   17.5933  101.7733 N   0  0  0  0  0  4  0  0  0  0  0  0
   33.7549   16.2749  101.8625 O   0  0  0  0  0  1  0  0  0  0  0  0
   33.3492   18.2652  102.8254 O   0  0  0  0  0  0  0  0  0  0  0  0
   32.9406   17.2254   96.9679 N   0  0  0  0  0  4  0  0  0  0  0  0
   33.5305   17.6566   95.8082 O   0  0  0  0  0  1  0  0  0  0  0  0
   26.9472   15.5623   97.0115 F   0  0  0  0  0  0  0  0  0  0  0  0
   32.3759   16.1168   96.9409 O   0  0  0  0  0  0  0  0  0  0  0  0
  1  2  2  0
  1  3  1  0
  2  4  1  0
  3  5  2  0
  7  3  1  1
  4  6  2  0
  4 27  1  0
  5  6  1  0
  8  7  1  6
  8 10  1  0
  8 13  1  0
 10  9  1  6
  9 11  1  6
 12 11  1  1
 11 14  1  0
 13 12  1  6
 14 15  1  0
 14 21  2  0
 15 17  1  0
 15 20  2  0
 17 16  2  0
 16 18  1  0
 17 25  1  0
 18 19  2  0
 18 22  1  0
 19 20  1  0
 22 23  1  0
 22 24  2  0
 25 26  1  0
 25 28  2  0
M  CHG  5   8   1  22   1  23  -1  25   1  26  -1
M  END
$$$$
