
     RDKit          3D

 28 30  0  0  0  0  0  0  0  0999 V2000
   27.5674   17.3667   95.6651 C   0  0  0  0  0  0  0  0  0  0  0  0
   26.9408   16.2284   96.0945 C   0  0  0  0  0  0  0  0  0  0  0  0
   26.8950   18.5770   95.7114 C   0  0  0  0  0  0  0  0  0  0  0  0
   25.6598   16.3051   96.5626 C   0  0  0  0  0  0  0  0  0  0  0  0
   25.6028   18.6640   96.1819 C   0  0  0  0  0  0  0  0  0  0  0  0
   24.9722   17.5113   96.6152 C   0  0  0  0  0  0  0  0  0  0  0  0
   27.5619   19.8239   95.2491 C   0  0  0  0  0  0  0  0  0  0  0  0
   28.9854   19.6281   95.0658 N   0  0  1  0  0  4  0  0  0  0  0  0
   30.8821   21.1375   95.5235 C   0  0  0  0  0  0  0  0  0  0  0  0
   29.6801   20.8117   94.6945 C   0  0  0  0  0  0  0  0  0  0  0  0
   31.6005   19.9907   95.9864 N   0  0  0  0  0  0  0  0  0  0  0  0
   30.9798   18.6985   95.9685 C   0  0  0  0  0  0  0  0  0  0  0  0
   29.4894   18.9606   96.2301 C   0  0  0  0  0  0  0  0  0  0  0  0
   32.9198   20.1179   96.4548 C   0  0  0  0  0  0  0  0  0  0  0  0
   33.5264   19.2529   97.4382 C   0  0  0  0  0  0  0  0  0  0  0  0
   35.2322   17.6374   98.0061 C   0  0  0  0  0  0  0  0  0  0  0  0
   34.6048   18.4798   97.0945 C   0  0  0  0  0  0  0  0  0  0  0  0
   34.7903   17.5443   99.3059 C   0  0  0  0  0  0  0  0  0  0  0  0
   33.6942   18.3283   99.6587 C   0  0  0  0  0  0  0  0  0  0  0  0
   33.0851   19.1578   98.7415 C   0  0  0  0  0  0  0  0  0  0  0  0
   33.6595   21.0491   96.0015 O   0  0  0  0  0  0  0  0  0  0  0  0
   35.4184   16.6887  100.2534 N   0  0  0  0  0  4  0  0  0  0  0  0
   36.6105   16.1130   99.9071 O   0  0  0  0  0  1  0  0  0  0  0  0
   34.8876   16.4823  101.3551 O   0  0  0  0  0  0  0  0  0  0  0  0
   35.1093   18.5168   95.7680 N   0  0  0  0  0  4  0  0  0  0  0  0
   36.4270   18.1577   95.5449 O   0  0  0  0  0  1  0  0  0  0  0  0
   25.0711   15.1534   96.9800 F   0  0  0  0  0  0  0  0  0  0  0  0
   34.3540   18.8678   94.8526 O   0  0  0  0  0  0  0  0  0  0  0  0
  1  2  2  0
  1  3  1  0
  2  4  1  0
  3  5  2  0
  3  7  1  0
  4  6  2  0
  4 27  1  0
  5  6  1  0
  8  7  1  1
  8 10  1  0
  8 13  1  0
 10  9  1  0
  9 11  1  0
 11 12  1  0
 11 14  1  0
 12 13  1  0
 14 15  1  0
 14 21  2  0
 15 17  1  0
 15 20  2  0
 17 16  2  0
 16 18  1  0
 17 25  1  0
 18 19  2  0
 18 22  1  0
 19 20  1  0
 22 23  1  0
 22 24  2  0
 25 26  1  0
 25 28  2  0
M  CHG  5   8   1  22   1  23  -1  25   1  26  -1
M  END
$$$$
