
     RDKit          3D

 28 30  0  0  0  0  0  0  0  0999 V2000
   26.8184   18.7784   95.5560 C   0  0  0  0  0  0  0  0  0  0  0  0
   26.3119   17.6144   95.0448 C   0  0  0  0  0  0  0  0  0  0  0  0
   27.2408   18.8201   96.8746 C   0  0  0  0  0  0  0  0  0  0  0  0
   26.2311   16.5106   95.8455 C   0  0  0  0  0  0  0  0  0  0  0  0
   27.1632   17.7118   97.6898 C   0  0  0  0  0  0  0  0  0  0  0  0
   26.6506   16.5366   97.1698 C   0  0  0  0  0  0  0  0  0  0  0  0
   27.7946   20.0773   97.4457 C   0  0  0  0  0  0  0  0  0  0  0  0
   29.0295   20.4587   96.7915 N   0  0  1  0  0  4  0  0  0  0  0  0
   31.3593   19.7937   97.2547 C   0  0  0  0  0  0  0  0  0  0  0  0
   30.1386   20.5488   97.6764 C   0  0  0  0  0  0  0  0  0  0  0  0
   31.5627   19.7559   95.8396 N   0  0  0  0  0  0  0  0  0  0  0  0
   30.4848   20.0754   94.9499 C   0  0  0  0  0  0  0  0  0  0  0  0
   29.2133   19.5933   95.6635 C   0  0  0  0  0  0  0  0  0  0  0  0
   32.8188   19.4133   95.3093 C   0  0  0  0  0  0  0  0  0  0  0  0
   34.0001   19.1622   96.0996 C   0  0  0  0  0  0  0  0  0  0  0  0
   35.7586   17.6471   96.7737 C   0  0  0  0  0  0  0  0  0  0  0  0
   34.6128   17.9375   96.0408 C   0  0  0  0  0  0  0  0  0  0  0  0
   36.3307   18.5887   97.5980 C   0  0  0  0  0  0  0  0  0  0  0  0
   35.7104   19.8346   97.6605 C   0  0  0  0  0  0  0  0  0  0  0  0
   34.5751   20.1044   96.9266 C   0  0  0  0  0  0  0  0  0  0  0  0
   32.9601   19.3080   94.0489 O   0  0  0  0  0  0  0  0  0  0  0  0
   37.5025   18.3114   98.3557 N   0  0  0  0  0  4  0  0  0  0  0  0
   37.8513   19.1915   99.3436 O   0  0  0  0  0  1  0  0  0  0  0  0
   38.1754   17.2979   98.1146 O   0  0  0  0  0  0  0  0  0  0  0  0
   34.0727   16.9136   95.2188 N   0  0  0  0  0  4  0  0  0  0  0  0
   34.8019   15.7521   95.0339 O   0  0  0  0  0  1  0  0  0  0  0  0
   25.7226   15.3734   95.3022 F   0  0  0  0  0  0  0  0  0  0  0  0
   32.9658   17.0918   94.6948 O   0  0  0  0  0  0  0  0  0  0  0  0
  1  2  2  0
  1  3  1  0
  2  4  1  0
  3  5  2  0
  3  7  1  0
  4  6  2  0
  4 27  1  0
  5  6  1  0
  8  7  1  1
  8 10  1  0
  8 13  1  0
 10  9  1  0
  9 11  1  0
 11 12  1  0
 11 14  1  0
 12 13  1  0
 14 15  1  0
 14 21  2  0
 15 17  1  0
 15 20  2  0
 17 16  2  0
 16 18  1  0
 17 25  1  0
 18 19  2  0
 18 22  1  0
 19 20  1  0
 22 23  1  0
 22 24  2  0
 25 26  1  0
 25 28  2  0
M  CHG  5   8   1  22   1  23  -1  25   1  26  -1
M  END
$$$$
