
     RDKit          3D

 28 30  0  0  0  0  0  0  0  0999 V2000
   27.2467   17.6658   96.9457 C   0  0  0  0  0  0  0  0  0  0  0  0
   26.5832   16.5004   97.2185 C   0  0  0  0  0  0  0  0  0  0  0  0
   26.9156   18.3929   95.8142 C   0  0  0  0  0  0  0  0  0  0  0  0
   25.6033   16.0729   96.3682 C   0  0  0  0  0  0  0  0  0  0  0  0
   25.9287   17.9696   94.9507 C   0  0  0  0  0  0  0  0  0  0  0  0
   25.2598   16.7910   95.2295 C   0  0  0  0  0  0  0  0  0  0  0  0
   27.6266   19.6623   95.5034 C   0  0  0  0  0  0  0  0  0  0  0  0
   28.7797   19.8484   96.3601 N   0  0  1  0  0  4  0  0  0  0  0  0
   31.0251   18.8313   96.2673 C   0  0  0  0  0  0  0  0  0  0  0  0
   29.5606   18.6721   96.5279 C   0  0  0  0  0  0  0  0  0  0  0  0
   31.5494   20.1084   96.6410 N   0  0  0  0  0  0  0  0  0  0  0  0
   30.6621   21.2123   96.8634 C   0  0  0  0  0  0  0  0  0  0  0  0
   29.4952   20.9976   95.8884 C   0  0  0  0  0  0  0  0  0  0  0  0
   32.9341   20.2911   96.8004 C   0  0  0  0  0  0  0  0  0  0  0  0
   33.8298   19.3098   97.3643 C   0  0  0  0  0  0  0  0  0  0  0  0
   35.3450   17.4556   97.0345 C   0  0  0  0  0  0  0  0  0  0  0  0
   34.4648   18.4141   96.5437 C   0  0  0  0  0  0  0  0  0  0  0  0
   35.6171   17.3660   98.3804 C   0  0  0  0  0  0  0  0  0  0  0  0
   34.9732   18.2744   99.2175 C   0  0  0  0  0  0  0  0  0  0  0  0
   34.1040   19.2179   98.7129 C   0  0  0  0  0  0  0  0  0  0  0  0
   33.4690   21.3856   96.4321 O   0  0  0  0  0  0  0  0  0  0  0  0
   36.5143   16.3927   98.9022 N   0  0  0  0  0  4  0  0  0  0  0  0
   36.5740   16.2377  100.2604 O   0  0  0  0  0  1  0  0  0  0  0  0
   37.2133   15.7142   98.1347 O   0  0  0  0  0  0  0  0  0  0  0  0
   34.2246   18.4410   95.1447 N   0  0  0  0  0  4  0  0  0  0  0  0
   35.1202   17.8071   94.3015 O   0  0  0  0  0  1  0  0  0  0  0  0
   24.9670   14.9111   96.6726 F   0  0  0  0  0  0  0  0  0  0  0  0
   33.2206   19.0295   94.7236 O   0  0  0  0  0  0  0  0  0  0  0  0
  1  2  2  0
  1  3  1  0
  2  4  1  0
  3  5  2  0
  3  7  1  0
  4  6  2  0
  4 27  1  0
  5  6  1  0
  8  7  1  6
  8 10  1  0
  8 13  1  0
 10  9  1  0
  9 11  1  0
 11 12  1  0
 11 14  1  0
 12 13  1  0
 14 15  1  0
 14 21  2  0
 15 17  1  0
 15 20  2  0
 17 16  2  0
 16 18  1  0
 17 25  1  0
 18 19  2  0
 18 22  1  0
 19 20  1  0
 22 23  1  0
 22 24  2  0
 25 26  1  0
 25 28  2  0
M  CHG  5   8   1  22   1  23  -1  25   1  26  -1
M  END
$$$$
