
     RDKit          3D

 28 30  0  0  0  0  0  0  0  0999 V2000
   30.6103   18.0911   95.2009 C   0  0  0  0  0  0  0  0  0  0  0  0
   30.6481   16.7511   94.9144 C   0  0  0  0  0  0  0  0  0  0  0  0
   31.6918   18.8952   94.9225 C   0  0  0  0  0  0  0  0  0  0  0  0
   31.7522   16.1551   94.3435 C   0  0  0  0  0  0  0  0  0  0  0  0
   32.8000   18.2836   94.3468 C   0  0  0  0  0  0  0  0  0  0  0  0
   32.8411   16.9388   94.0579 C   0  0  0  0  0  0  0  0  0  0  0  0
   31.6963   20.3681   95.2187 C   0  0  0  0  0  0  0  0  0  0  0  0
   30.5062   20.7182   96.0079 N   0  0  1  0  0  4  0  0  0  0  0  0
   29.8498   19.9506   98.2597 C   0  0  0  0  0  0  0  0  0  0  0  0
   30.0519   19.6307   96.8128 C   0  0  0  0  0  0  0  0  0  0  0  0
   31.0093   20.6073   98.8186 N   0  0  0  0  0  0  0  0  0  0  0  0
   31.8492   21.3120   97.8696 C   0  0  0  0  0  0  0  0  0  0  0  0
   30.8588   21.8492   96.8257 C   0  0  0  0  0  0  0  0  0  0  0  0
   31.3581   20.6044  100.1709 C   0  0  0  0  0  0  0  0  0  0  0  0
   30.4836   19.9417  101.1134 C   0  0  0  0  0  0  0  0  0  0  0  0
   29.1591   18.0461  101.7961 C   0  0  0  0  0  0  0  0  0  0  0  0
   29.9970   18.6733  100.8856 C   0  0  0  0  0  0  0  0  0  0  0  0
   28.8226   18.7241  102.9401 C   0  0  0  0  0  0  0  0  0  0  0  0
   29.2972   20.0030  103.1972 C   0  0  0  0  0  0  0  0  0  0  0  0
   30.1333   20.6022  102.2663 C   0  0  0  0  0  0  0  0  0  0  0  0
   32.4187   21.1638  100.6088 O   0  0  0  0  0  0  0  0  0  0  0  0
   27.9679   18.1256  103.9037 N   0  0  0  0  0  4  0  0  0  0  0  0
   27.6977   18.7827  105.0618 O   0  0  0  0  0  1  0  0  0  0  0  0
   27.4529   17.0008  103.7135 O   0  0  0  0  0  0  0  0  0  0  0  0
   30.3620   17.9959   99.6934 N   0  0  0  0  0  4  0  0  0  0  0  0
   29.5788   16.9998   99.1708 O   0  0  0  0  0  1  0  0  0  0  0  0
   31.7610   14.8059   94.0667 F   0  0  0  0  0  0  0  0  0  0  0  0
   31.4059   18.2804   99.0787 O   0  0  0  0  0  0  0  0  0  0  0  0
  1  2  2  0
  1  3  1  0
  2  4  1  0
  3  5  2  0
  7  3  1  1
  4  6  2  0
  4 27  1  0
  5  6  1  0
  8  7  1  1
  8 10  1  0
  8 13  1  0
 10  9  1  6
  9 11  1  6
 12 11  1  1
 11 14  1  0
 13 12  1  6
 14 15  1  0
 14 21  2  0
 15 17  1  0
 15 20  2  0
 17 16  2  0
 16 18  1  0
 17 25  1  0
 18 19  2  0
 18 22  1  0
 19 20  1  0
 22 23  1  0
 22 24  2  0
 25 26  1  0
 25 28  2  0
M  CHG  5   8   1  22   1  23  -1  25   1  26  -1
M  END
$$$$
