
     RDKit          3D

 28 30  0  0  0  0  0  0  0  0999 V2000
   26.4221   18.4276   94.7753 C   0  0  0  0  0  0  0  0  0  0  0  0
   25.6151   17.3196   94.7825 C   0  0  0  0  0  0  0  0  0  0  0  0
   27.2591   18.6886   95.8360 C   0  0  0  0  0  0  0  0  0  0  0  0
   25.6034   16.4289   95.8345 C   0  0  0  0  0  0  0  0  0  0  0  0
   27.2392   17.7836   96.8916 C   0  0  0  0  0  0  0  0  0  0  0  0
   26.4303   16.6704   96.9020 C   0  0  0  0  0  0  0  0  0  0  0  0
   28.1609   19.8896   95.8724 C   0  0  0  0  0  0  0  0  0  0  0  0
   28.8563   19.9477   97.1665 N   0  0  1  0  0  4  0  0  0  0  0  0
   31.1251   19.1723   97.7512 C   0  0  0  0  0  0  0  0  0  0  0  0
   29.7210   18.8301   97.3664 C   0  0  0  0  0  0  0  0  0  0  0  0
   31.6893   20.1564   96.8560 N   0  0  0  0  0  0  0  0  0  0  0  0
   30.7320   21.0039   96.1720 C   0  0  0  0  0  0  0  0  0  0  0  0
   29.5981   21.1812   97.1930 C   0  0  0  0  0  0  0  0  0  0  0  0
   33.0538   20.3345   96.6178 C   0  0  0  0  0  0  0  0  0  0  0  0
   34.0033   19.7212   97.5202 C   0  0  0  0  0  0  0  0  0  0  0  0
   35.5728   17.9756   98.0709 C   0  0  0  0  0  0  0  0  0  0  0  0
   34.6635   18.5558   97.1986 C   0  0  0  0  0  0  0  0  0  0  0  0
   35.8023   18.5947   99.2732 C   0  0  0  0  0  0  0  0  0  0  0  0
   35.1523   19.7697   99.6253 C   0  0  0  0  0  0  0  0  0  0  0  0
   34.2488   20.3242   98.7304 C   0  0  0  0  0  0  0  0  0  0  0  0
   33.4969   21.0177   95.6347 O   0  0  0  0  0  0  0  0  0  0  0  0
   36.7241   18.0408  100.2010 N   0  0  0  0  0  4  0  0  0  0  0  0
   37.3615   16.8788   99.9017 O   0  0  0  0  0  1  0  0  0  0  0  0
   36.9670   18.5981  101.2950 O   0  0  0  0  0  0  0  0  0  0  0  0
   34.4062   17.9375   95.9476 N   0  0  0  0  0  4  0  0  0  0  0  0
   34.7520   16.6320   95.7129 O   0  0  0  0  0  1  0  0  0  0  0  0
   24.7816   15.3238   95.8136 F   0  0  0  0  0  0  0  0  0  0  0  0
   33.8579   18.5567   95.0180 O   0  0  0  0  0  0  0  0  0  0  0  0
  1  2  2  0
  1  3  1  0
  2  4  1  0
  3  5  2  0
  7  3  1  1
  4  6  2  0
  4 27  1  0
  5  6  1  0
  8  7  1  6
  8 10  1  0
  8 13  1  0
 10  9  1  6
  9 11  1  6
 12 11  1  1
 11 14  1  0
 13 12  1  6
 14 15  1  0
 14 21  2  0
 15 17  1  0
 15 20  2  0
 17 16  2  0
 16 18  1  0
 17 25  1  0
 18 19  2  0
 18 22  1  0
 19 20  1  0
 22 23  1  0
 22 24  2  0
 25 26  1  0
 25 28  2  0
M  CHG  5   8   1  22   1  23  -1  25   1  26  -1
M  END
$$$$
