
     RDKit          3D

 28 30  0  0  0  0  0  0  0  0999 V2000
   25.1872   17.9452   96.0422 C   0  0  0  0  0  0  0  0  0  0  0  0
   24.8249   16.6399   96.2363 C   0  0  0  0  0  0  0  0  0  0  0  0
   26.5015   18.2513   95.7293 C   0  0  0  0  0  0  0  0  0  0  0  0
   25.7676   15.6585   96.1179 C   0  0  0  0  0  0  0  0  0  0  0  0
   27.4594   17.2681   95.6079 C   0  0  0  0  0  0  0  0  0  0  0  0
   27.0896   15.9495   95.8048 C   0  0  0  0  0  0  0  0  0  0  0  0
   26.9119   19.6650   95.5145 C   0  0  0  0  0  0  0  0  0  0  0  0
   28.3259   19.7680   95.2167 N   0  0  1  0  0  4  0  0  0  0  0  0
   30.0316   21.3349   96.0653 C   0  0  0  0  0  0  0  0  0  0  0  0
   28.8145   21.1031   95.2270 C   0  0  0  0  0  0  0  0  0  0  0  0
   30.9401   20.2307   96.0937 N   0  0  0  0  0  0  0  0  0  0  0  0
   30.5036   18.9301   95.6774 C   0  0  0  0  0  0  0  0  0  0  0  0
   29.0218   18.8534   96.0737 C   0  0  0  0  0  0  0  0  0  0  0  0
   32.2671   20.4108   96.5215 C   0  0  0  0  0  0  0  0  0  0  0  0
   33.3001   19.4070   96.4299 C   0  0  0  0  0  0  0  0  0  0  0  0
   34.7293   17.7980   97.5304 C   0  0  0  0  0  0  0  0  0  0  0  0
   33.7439   18.7790   97.5646 C   0  0  0  0  0  0  0  0  0  0  0  0
   35.3061   17.4136   96.3418 C   0  0  0  0  0  0  0  0  0  0  0  0
   34.8578   18.0501   95.1865 C   0  0  0  0  0  0  0  0  0  0  0  0
   33.8799   19.0202   95.2397 C   0  0  0  0  0  0  0  0  0  0  0  0
   32.6169   21.5241   97.0292 O   0  0  0  0  0  0  0  0  0  0  0  0
   36.3153   16.4123   96.2858 N   0  0  0  0  0  4  0  0  0  0  0  0
   36.7438   15.8662   97.4650 O   0  0  0  0  0  1  0  0  0  0  0  0
   36.7811   16.0570   95.1926 O   0  0  0  0  0  0  0  0  0  0  0  0
   33.2010   19.1315   98.8282 N   0  0  0  0  0  4  0  0  0  0  0  0
   33.6506   18.4679   99.9562 O   0  0  0  0  0  1  0  0  0  0  0  0
   25.3696   14.3745   96.3179 F   0  0  0  0  0  0  0  0  0  0  0  0
   32.3437   20.0225   98.8809 O   0  0  0  0  0  0  0  0  0  0  0  0
  1  2  2  0
  1  3  1  0
  2  4  1  0
  3  5  2  0
  3  7  1  0
  4  6  2  0
  4 27  1  0
  5  6  1  0
  8  7  1  1
  8 10  1  0
  8 13  1  0
 10  9  1  0
  9 11  1  0
 11 12  1  0
 11 14  1  0
 12 13  1  0
 14 15  1  0
 14 21  2  0
 15 17  1  0
 15 20  2  0
 17 16  2  0
 16 18  1  0
 17 25  1  0
 18 19  2  0
 18 22  1  0
 19 20  1  0
 22 23  1  0
 22 24  2  0
 25 26  1  0
 25 28  2  0
M  CHG  5   8   1  22   1  23  -1  25   1  26  -1
M  END
$$$$
