
     RDKit          3D

 28 30  0  0  0  0  0  0  0  0999 V2000
   25.3398   18.7673   95.5698 C   0  0  0  0  0  0  0  0  0  0  0  0
   24.6394   17.7857   96.2218 C   0  0  0  0  0  0  0  0  0  0  0  0
   26.6870   18.6218   95.3301 C   0  0  0  0  0  0  0  0  0  0  0  0
   25.2408   16.6257   96.6611 C   0  0  0  0  0  0  0  0  0  0  0  0
   27.2832   17.4480   95.7775 C   0  0  0  0  0  0  0  0  0  0  0  0
   26.5832   16.4607   96.4323 C   0  0  0  0  0  0  0  0  0  0  0  0
   27.4953   19.6702   94.6198 C   0  0  0  0  0  0  0  0  0  0  0  0
   28.8638   19.1780   94.4034 N   0  0  1  0  0  4  0  0  0  0  0  0
   30.9202   19.6870   95.6693 C   0  0  0  0  0  0  0  0  0  0  0  0
   29.8490   20.1552   94.7365 C   0  0  0  0  0  0  0  0  0  0  0  0
   30.3568   19.0477   96.8363 N   0  0  0  0  0  0  0  0  0  0  0  0
   29.0306   18.4869   96.6654 C   0  0  0  0  0  0  0  0  0  0  0  0
   29.0205   17.9960   95.2099 C   0  0  0  0  0  0  0  0  0  0  0  0
   30.9904   18.9411   98.0763 C   0  0  0  0  0  0  0  0  0  0  0  0
   32.4352   18.8855   98.1167 C   0  0  0  0  0  0  0  0  0  0  0  0
   34.4943   18.1194   99.1100 C   0  0  0  0  0  0  0  0  0  0  0  0
   33.1082   18.1668   99.0801 C   0  0  0  0  0  0  0  0  0  0  0  0
   35.1868   18.8113   98.1491 C   0  0  0  0  0  0  0  0  0  0  0  0
   34.5365   19.5442   97.1658 C   0  0  0  0  0  0  0  0  0  0  0  0
   33.1494   19.5711   97.1638 C   0  0  0  0  0  0  0  0  0  0  0  0
   30.3448   18.8905   99.1765 O   0  0  0  0  0  0  0  0  0  0  0  0
   36.6070   18.7945   98.1363 N   0  0  0  0  0  4  0  0  0  0  0  0
   37.2794   19.5575   97.2353 O   0  0  0  0  0  1  0  0  0  0  0  0
   37.2609   18.0907   98.9386 O   0  0  0  0  0  0  0  0  0  0  0  0
   32.3656   17.4607  100.0616 N   0  0  0  0  0  4  0  0  0  0  0  0
   32.9836   16.8570  101.1257 O   0  0  0  0  0  1  0  0  0  0  0  0
   24.5112   15.6566   97.3135 F   0  0  0  0  0  0  0  0  0  0  0  0
   31.1270   17.3632   99.9927 O   0  0  0  0  0  0  0  0  0  0  0  0
  1  2  2  0
  1  3  1  0
  2  4  1  0
  3  5  2  0
  7  3  1  1
  4  6  2  0
  4 27  1  0
  5  6  1  0
  8  7  1  1
  8 10  1  0
  8 13  1  0
 10  9  1  6
  9 11  1  6
 12 11  1  1
 11 14  1  0
 13 12  1  6
 14 15  1  0
 14 21  2  0
 15 17  1  0
 15 20  2  0
 17 16  2  0
 16 18  1  0
 17 25  1  0
 18 19  2  0
 18 22  1  0
 19 20  1  0
 22 23  1  0
 22 24  2  0
 25 26  1  0
 25 28  2  0
M  CHG  5   8   1  22   1  23  -1  25   1  26  -1
M  END
$$$$
