
     RDKit          3D

 28 30  0  0  0  0  0  0  0  0999 V2000
   25.3469   18.3612   96.2118 C   0  0  0  0  0  0  0  0  0  0  0  0
   24.9366   17.0684   96.3937 C   0  0  0  0  0  0  0  0  0  0  0  0
   26.6888   18.6295   95.9971 C   0  0  0  0  0  0  0  0  0  0  0  0
   25.8596   16.0620   96.3604 C   0  0  0  0  0  0  0  0  0  0  0  0
   27.6270   17.6209   95.9618 C   0  0  0  0  0  0  0  0  0  0  0  0
   27.2089   16.3150   96.1461 C   0  0  0  0  0  0  0  0  0  0  0  0
   27.1515   20.0292   95.7968 C   0  0  0  0  0  0  0  0  0  0  0  0
   28.5382   20.0756   95.3805 N   0  0  1  0  0  4  0  0  0  0  0  0
   30.3868   21.5284   96.1266 C   0  0  0  0  0  0  0  0  0  0  0  0
   29.0925   21.3848   95.3905 C   0  0  0  0  0  0  0  0  0  0  0  0
   31.2377   20.3821   96.0409 N   0  0  0  0  0  0  0  0  0  0  0  0
   30.7023   19.1194   95.6233 C   0  0  0  0  0  0  0  0  0  0  0  0
   29.2578   19.0989   96.1443 C   0  0  0  0  0  0  0  0  0  0  0  0
   32.6037   20.4836   96.3572 C   0  0  0  0  0  0  0  0  0  0  0  0
   33.5143   19.3656   96.4219 C   0  0  0  0  0  0  0  0  0  0  0  0
   34.6223   17.6693   97.7399 C   0  0  0  0  0  0  0  0  0  0  0  0
   33.7620   18.7560   97.6243 C   0  0  0  0  0  0  0  0  0  0  0  0
   35.2681   17.1559   96.6386 C   0  0  0  0  0  0  0  0  0  0  0  0
   35.0190   17.7733   95.4148 C   0  0  0  0  0  0  0  0  0  0  0  0
   34.1627   18.8495   95.3194 C   0  0  0  0  0  0  0  0  0  0  0  0
   33.1062   21.6254   96.6089 O   0  0  0  0  0  0  0  0  0  0  0  0
   36.1517   16.0451   96.7359 N   0  0  0  0  0  4  0  0  0  0  0  0
   35.7315   14.9506   97.4415 O   0  0  0  0  0  1  0  0  0  0  0  0
   37.2653   16.0847   96.1914 O   0  0  0  0  0  0  0  0  0  0  0  0
   33.1384   19.2381   98.8051 N   0  0  0  0  0  4  0  0  0  0  0  0
   33.6908   18.9136  100.0317 O   0  0  0  0  0  1  0  0  0  0  0  0
   25.4139   14.7914   96.5452 F   0  0  0  0  0  0  0  0  0  0  0  0
   32.1210   19.9348   98.6999 O   0  0  0  0  0  0  0  0  0  0  0  0
  1  2  2  0
  1  3  1  0
  2  4  1  0
  3  5  2  0
  3  7  1  0
  4  6  2  0
  4 27  1  0
  5  6  1  0
  8  7  1  1
  8 10  1  0
  8 13  1  0
 10  9  1  0
  9 11  1  0
 11 12  1  0
 11 14  1  0
 12 13  1  0
 14 15  1  0
 14 21  2  0
 15 17  1  0
 15 20  2  0
 17 16  2  0
 16 18  1  0
 17 25  1  0
 18 19  2  0
 18 22  1  0
 19 20  1  0
 22 23  1  0
 22 24  2  0
 25 26  1  0
 25 28  2  0
M  CHG  5   8   1  22   1  23  -1  25   1  26  -1
M  END
$$$$
