
     RDKit          3D

 28 30  0  0  0  0  0  0  0  0999 V2000
   25.2416   18.1838   95.9202 C   0  0  0  0  0  0  0  0  0  0  0  0
   24.8393   16.9009   96.1754 C   0  0  0  0  0  0  0  0  0  0  0  0
   26.5882   18.4564   95.7442 C   0  0  0  0  0  0  0  0  0  0  0  0
   25.7748   15.9085   96.2525 C   0  0  0  0  0  0  0  0  0  0  0  0
   27.5391   17.4620   95.8201 C   0  0  0  0  0  0  0  0  0  0  0  0
   27.1290   16.1661   96.0783 C   0  0  0  0  0  0  0  0  0  0  0  0
   27.0423   19.8454   95.4654 C   0  0  0  0  0  0  0  0  0  0  0  0
   28.4753   19.9048   95.2620 N   0  0  1  0  0  4  0  0  0  0  0  0
   30.1818   21.3532   96.2989 C   0  0  0  0  0  0  0  0  0  0  0  0
   29.0130   21.2161   95.3753 C   0  0  0  0  0  0  0  0  0  0  0  0
   31.0437   20.2122   96.3234 N   0  0  0  0  0  0  0  0  0  0  0  0
   30.5853   18.9542   95.8106 C   0  0  0  0  0  0  0  0  0  0  0  0
   29.0794   18.9188   96.1094 C   0  0  0  0  0  0  0  0  0  0  0  0
   32.3464   20.3144   96.8420 C   0  0  0  0  0  0  0  0  0  0  0  0
   33.3517   19.2839   96.7390 C   0  0  0  0  0  0  0  0  0  0  0  0
   34.7353   17.6234   97.8209 C   0  0  0  0  0  0  0  0  0  0  0  0
   33.7770   18.6304   97.8662 C   0  0  0  0  0  0  0  0  0  0  0  0
   35.3026   17.2377   96.6280 C   0  0  0  0  0  0  0  0  0  0  0  0
   34.8730   17.9001   95.4802 C   0  0  0  0  0  0  0  0  0  0  0  0
   33.9218   18.8958   95.5445 C   0  0  0  0  0  0  0  0  0  0  0  0
   32.6980   21.3756   97.4500 O   0  0  0  0  0  0  0  0  0  0  0  0
   36.2841   16.2099   96.5606 N   0  0  0  0  0  4  0  0  0  0  0  0
   36.7858   15.8813   95.3307 O   0  0  0  0  0  1  0  0  0  0  0  0
   36.6621   15.6399   97.5951 O   0  0  0  0  0  0  0  0  0  0  0  0
   33.2427   18.9823   99.1336 N   0  0  0  0  0  4  0  0  0  0  0  0
   33.7787   18.4001  100.2688 O   0  0  0  0  0  1  0  0  0  0  0  0
   25.3368   14.6475   96.5074 F   0  0  0  0  0  0  0  0  0  0  0  0
   32.3152   19.8001   99.1831 O   0  0  0  0  0  0  0  0  0  0  0  0
  1  2  2  0
  1  3  1  0
  2  4  1  0
  3  5  2  0
  3  7  1  0
  4  6  2  0
  4 27  1  0
  5  6  1  0
  8  7  1  1
  8 10  1  0
  8 13  1  0
 10  9  1  0
  9 11  1  0
 11 12  1  0
 11 14  1  0
 12 13  1  0
 14 15  1  0
 14 21  2  0
 15 17  1  0
 15 20  2  0
 17 16  2  0
 16 18  1  0
 17 25  1  0
 18 19  2  0
 18 22  1  0
 19 20  1  0
 22 23  1  0
 22 24  2  0
 25 26  1  0
 25 28  2  0
M  CHG  5   8   1  22   1  23  -1  25   1  26  -1
M  END
$$$$
