
     RDKit          3D

 28 30  0  0  0  0  0  0  0  0999 V2000
   25.4906   18.6358   96.2730 C   0  0  0  0  0  0  0  0  0  0  0  0
   25.0451   17.3501   96.4187 C   0  0  0  0  0  0  0  0  0  0  0  0
   26.8365   18.8720   96.0456 C   0  0  0  0  0  0  0  0  0  0  0  0
   25.9372   16.3190   96.3374 C   0  0  0  0  0  0  0  0  0  0  0  0
   27.7438   17.8383   95.9620 C   0  0  0  0  0  0  0  0  0  0  0  0
   27.2900   16.5396   96.1099 C   0  0  0  0  0  0  0  0  0  0  0  0
   27.3372   20.2636   95.8842 C   0  0  0  0  0  0  0  0  0  0  0  0
   28.7734   20.2927   95.6970 N   0  0  1  0  0  4  0  0  0  0  0  0
   30.5998   19.6077   97.2070 C   0  0  0  0  0  0  0  0  0  0  0  0
   29.4978   20.5681   96.8890 C   0  0  0  0  0  0  0  0  0  0  0  0
   31.2698   19.0859   96.0562 N   0  0  0  0  0  0  0  0  0  0  0  0
   30.6622   19.1907   94.7619 C   0  0  0  0  0  0  0  0  0  0  0  0
   29.1507   19.0901   95.0139 C   0  0  0  0  0  0  0  0  0  0  0  0
   32.5291   18.4738   96.1817 C   0  0  0  0  0  0  0  0  0  0  0  0
   33.2151   18.2615   97.4337 C   0  0  0  0  0  0  0  0  0  0  0  0
   35.2071   17.5663   98.6131 C   0  0  0  0  0  0  0  0  0  0  0  0
   34.4980   17.7790   97.4357 C   0  0  0  0  0  0  0  0  0  0  0  0
   34.6425   17.8345   99.8390 C   0  0  0  0  0  0  0  0  0  0  0  0
   33.3385   18.3247   99.8409 C   0  0  0  0  0  0  0  0  0  0  0  0
   32.6512   18.5295   98.6636 C   0  0  0  0  0  0  0  0  0  0  0  0
   33.1350   18.0659   95.1395 O   0  0  0  0  0  0  0  0  0  0  0  0
   35.3511   17.6237  101.0546 N   0  0  0  0  0  4  0  0  0  0  0  0
   34.7049   17.8958  102.2297 O   0  0  0  0  0  1  0  0  0  0  0  0
   36.5184   17.2054  101.0314 O   0  0  0  0  0  0  0  0  0  0  0  0
   35.1411   17.4705   96.2080 N   0  0  0  0  0  4  0  0  0  0  0  0
   36.4331   16.9757   96.2374 O   0  0  0  0  0  1  0  0  0  0  0  0
   25.4570   15.0564   96.4873 F   0  0  0  0  0  0  0  0  0  0  0  0
   34.5249   17.6526   95.1503 O   0  0  0  0  0  0  0  0  0  0  0  0
  1  2  2  0
  1  3  1  0
  2  4  1  0
  3  5  2  0
  3  7  1  0
  4  6  2  0
  4 27  1  0
  5  6  1  0
  8  7  1  1
  8 10  1  0
  8 13  1  0
 10  9  1  0
  9 11  1  0
 11 12  1  0
 11 14  1  0
 12 13  1  0
 14 15  1  0
 14 21  2  0
 15 17  1  0
 15 20  2  0
 17 16  2  0
 16 18  1  0
 17 25  1  0
 18 19  2  0
 18 22  1  0
 19 20  1  0
 22 23  1  0
 22 24  2  0
 25 26  1  0
 25 28  2  0
M  CHG  5   8   1  22   1  23  -1  25   1  26  -1
M  END
$$$$
