
     RDKit          3D

 28 30  0  0  0  0  0  0  0  0999 V2000
   26.1221   19.0138   96.4830 C   0  0  0  0  0  0  0  0  0  0  0  0
   25.6942   17.8634   97.0932 C   0  0  0  0  0  0  0  0  0  0  0  0
   27.3002   19.0304   95.7721 C   0  0  0  0  0  0  0  0  0  0  0  0
   26.4111   16.6880   97.0250 C   0  0  0  0  0  0  0  0  0  0  0  0
   28.0152   17.8393   95.7099 C   0  0  0  0  0  0  0  0  0  0  0  0
   27.5885   16.6827   96.3212 C   0  0  0  0  0  0  0  0  0  0  0  0
   27.8090   20.2669   95.0871 C   0  0  0  0  0  0  0  0  0  0  0  0
   29.0814   19.9713   94.4124 N   0  0  1  0  0  4  0  0  0  0  0  0
   31.3180   20.9334   94.8152 C   0  0  0  0  0  0  0  0  0  0  0  0
   29.9214   21.1208   94.3143 C   0  0  0  0  0  0  0  0  0  0  0  0
   31.3271   20.3516   96.1379 N   0  0  0  0  0  0  0  0  0  0  0  0
   30.1535   19.5763   96.4901 C   0  0  0  0  0  0  0  0  0  0  0  0
   29.7266   18.9274   95.1649 C   0  0  0  0  0  0  0  0  0  0  0  0
   32.3622   20.4862   97.0657 C   0  0  0  0  0  0  0  0  0  0  0  0
   32.4327   19.5538   98.1693 C   0  0  0  0  0  0  0  0  0  0  0  0
   33.4227   17.6494   99.2678 C   0  0  0  0  0  0  0  0  0  0  0  0
   33.3628   18.5384   98.2045 C   0  0  0  0  0  0  0  0  0  0  0  0
   32.5258   17.8057  100.2938 C   0  0  0  0  0  0  0  0  0  0  0  0
   31.5772   18.8193  100.2864 C   0  0  0  0  0  0  0  0  0  0  0  0
   31.5439   19.6916   99.2082 C   0  0  0  0  0  0  0  0  0  0  0  0
   33.2493   21.4001   96.9788 O   0  0  0  0  0  0  0  0  0  0  0  0
   32.5460   16.9217  101.4053 N   0  0  0  0  0  4  0  0  0  0  0  0
   33.6405   16.1481  101.6281 O   0  0  0  0  0  1  0  0  0  0  0  0
   31.5756   16.8353  102.1911 O   0  0  0  0  0  0  0  0  0  0  0  0
   34.2782   18.4008   97.1291 N   0  0  0  0  0  4  0  0  0  0  0  0
   35.3727   17.5813   97.2246 O   0  0  0  0  0  1  0  0  0  0  0  0
   25.9558   15.5472   97.6483 F   0  0  0  0  0  0  0  0  0  0  0  0
   34.1216   19.0185   96.0603 O   0  0  0  0  0  0  0  0  0  0  0  0
  1  2  2  0
  1  3  1  0
  2  4  1  0
  3  5  2  0
  7  3  1  1
  4  6  2  0
  4 27  1  0
  5  6  1  0
  8  7  1  1
  8 10  1  0
  8 13  1  0
 10  9  1  6
  9 11  1  6
 12 11  1  1
 11 14  1  0
 13 12  1  6
 14 15  1  0
 14 21  2  0
 15 17  1  0
 15 20  2  0
 17 16  2  0
 16 18  1  0
 17 25  1  0
 18 19  2  0
 18 22  1  0
 19 20  1  0
 22 23  1  0
 22 24  2  0
 25 26  1  0
 25 28  2  0
M  CHG  5   8   1  22   1  23  -1  25   1  26  -1
M  END
$$$$
