
     RDKit          3D

 28 30  0  0  0  0  0  0  0  0999 V2000
   27.7061   17.8546   95.5690 C   0  0  0  0  0  0  0  0  0  0  0  0
   27.3249   16.5797   95.8983 C   0  0  0  0  0  0  0  0  0  0  0  0
   26.8150   18.8982   95.6714 C   0  0  0  0  0  0  0  0  0  0  0  0
   26.0525   16.2869   96.3402 C   0  0  0  0  0  0  0  0  0  0  0  0
   25.5344   18.5914   96.1182 C   0  0  0  0  0  0  0  0  0  0  0  0
   25.1485   17.3128   96.4495 C   0  0  0  0  0  0  0  0  0  0  0  0
   27.1874   20.3111   95.3220 C   0  0  0  0  0  0  0  0  0  0  0  0
   28.5572   20.3448   94.7889 N   0  0  1  0  0  4  0  0  0  0  0  0
   30.7036   20.2805   96.0051 C   0  0  0  0  0  0  0  0  0  0  0  0
   29.4584   21.0318   95.6563 C   0  0  0  0  0  0  0  0  0  0  0  0
   30.3987   18.9457   96.4672 N   0  0  0  0  0  0  0  0  0  0  0  0
   29.1375   18.3962   96.0090 C   0  0  0  0  0  0  0  0  0  0  0  0
   28.9702   18.9791   94.5977 C   0  0  0  0  0  0  0  0  0  0  0  0
   31.2170   18.1793   97.2998 C   0  0  0  0  0  0  0  0  0  0  0  0
   32.4356   18.7676   97.8106 C   0  0  0  0  0  0  0  0  0  0  0  0
   34.7559   18.6071   98.4463 C   0  0  0  0  0  0  0  0  0  0  0  0
   33.5920   18.0334   97.9559 C   0  0  0  0  0  0  0  0  0  0  0  0
   34.7293   19.9356   98.7869 C   0  0  0  0  0  0  0  0  0  0  0  0
   33.5792   20.7012   98.6516 C   0  0  0  0  0  0  0  0  0  0  0  0
   32.4320   20.0972   98.1581 C   0  0  0  0  0  0  0  0  0  0  0  0
   30.9322   16.9790   97.6285 O   0  0  0  0  0  0  0  0  0  0  0  0
   35.8948   20.5699   99.2935 N   0  0  0  0  0  4  0  0  0  0  0  0
   35.8640   21.8965   99.5857 O   0  0  0  0  0  1  0  0  0  0  0  0
   36.9574   19.9352   99.4796 O   0  0  0  0  0  0  0  0  0  0  0  0
   33.5901   16.6610   97.5954 N   0  0  0  0  0  4  0  0  0  0  0  0
   34.4577   15.7708   98.1730 O   0  0  0  0  0  1  0  0  0  0  0  0
   25.6981   14.9959   96.6639 F   0  0  0  0  0  0  0  0  0  0  0  0
   32.8016   16.2150   96.7423 O   0  0  0  0  0  0  0  0  0  0  0  0
  1  2  2  0
  1  3  1  0
  2  4  1  0
  3  5  2  0
  7  3  1  1
  4  6  2  0
  4 27  1  0
  5  6  1  0
  8  7  1  1
  8 10  1  0
  8 13  1  0
 10  9  1  6
  9 11  1  6
 12 11  1  1
 11 14  1  0
 13 12  1  6
 14 15  1  0
 14 21  2  0
 15 17  1  0
 15 20  2  0
 17 16  2  0
 16 18  1  0
 17 25  1  0
 18 19  2  0
 18 22  1  0
 19 20  1  0
 22 23  1  0
 22 24  2  0
 25 26  1  0
 25 28  2  0
M  CHG  5   8   1  22   1  23  -1  25   1  26  -1
M  END
$$$$
