
     RDKit          3D

 28 30  0  0  0  0  0  0  0  0999 V2000
   25.4499   18.6903   96.3254 C   0  0  0  0  0  0  0  0  0  0  0  0
   25.0423   17.3893   96.2067 C   0  0  0  0  0  0  0  0  0  0  0  0
   26.7954   18.9730   96.4948 C   0  0  0  0  0  0  0  0  0  0  0  0
   25.9713   16.3891   96.2574 C   0  0  0  0  0  0  0  0  0  0  0  0
   27.7397   17.9708   96.5471 C   0  0  0  0  0  0  0  0  0  0  0  0
   27.3241   16.6567   96.4268 C   0  0  0  0  0  0  0  0  0  0  0  0
   27.2554   20.3818   96.6247 C   0  0  0  0  0  0  0  0  0  0  0  0
   28.5685   20.5675   96.0418 N   0  0  1  0  0  4  0  0  0  0  0  0
   30.8119   20.1752   96.9896 C   0  0  0  0  0  0  0  0  0  0  0  0
   29.5537   20.9844   96.9783 C   0  0  0  0  0  0  0  0  0  0  0  0
   31.1975   19.6772   95.7056 N   0  0  0  0  0  0  0  0  0  0  0  0
   30.2478   19.6458   94.6321 C   0  0  0  0  0  0  0  0  0  0  0  0
   28.8897   19.3839   95.2995 C   0  0  0  0  0  0  0  0  0  0  0  0
   32.5088   19.2221   95.4825 C   0  0  0  0  0  0  0  0  0  0  0  0
   33.5123   19.0808   96.5102 C   0  0  0  0  0  0  0  0  0  0  0  0
   34.7720   17.6467   97.9930 C   0  0  0  0  0  0  0  0  0  0  0  0
   33.8070   17.8390   97.0100 C   0  0  0  0  0  0  0  0  0  0  0  0
   35.4785   18.7081   98.5103 C   0  0  0  0  0  0  0  0  0  0  0  0
   35.1813   19.9718   98.0049 C   0  0  0  0  0  0  0  0  0  0  0  0
   34.2215   20.1433   97.0304 C   0  0  0  0  0  0  0  0  0  0  0  0
   32.8702   18.9031   94.3047 O   0  0  0  0  0  0  0  0  0  0  0  0
   36.4694   18.5322   99.5160 N   0  0  0  0  0  4  0  0  0  0  0  0
   36.6950   17.2649   99.9802 O   0  0  0  0  0  1  0  0  0  0  0  0
   37.1003   19.5090   99.9473 O   0  0  0  0  0  0  0  0  0  0  0  0
   33.1109   16.6984   96.5303 N   0  0  0  0  0  4  0  0  0  0  0  0
   33.6237   15.4416   96.7994 O   0  0  0  0  0  1  0  0  0  0  0  0
   25.5280   15.1102   96.1358 F   0  0  0  0  0  0  0  0  0  0  0  0
   32.0663   16.8644   95.8878 O   0  0  0  0  0  0  0  0  0  0  0  0
  1  2  2  0
  1  3  1  0
  2  4  1  0
  3  5  2  0
  3  7  1  0
  4  6  2  0
  4 27  1  0
  5  6  1  0
  8  7  1  1
  8 10  1  0
  8 13  1  0
 10  9  1  0
  9 11  1  0
 11 12  1  0
 11 14  1  0
 12 13  1  0
 14 15  1  0
 14 21  2  0
 15 17  1  0
 15 20  2  0
 17 16  2  0
 16 18  1  0
 17 25  1  0
 18 19  2  0
 18 22  1  0
 19 20  1  0
 22 23  1  0
 22 24  2  0
 25 26  1  0
 25 28  2  0
M  CHG  5   8   1  22   1  23  -1  25   1  26  -1
M  END
$$$$
