
     RDKit          3D

 28 30  0  0  0  0  0  0  0  0999 V2000
   25.1136   18.2266   96.3569 C   0  0  0  0  0  0  0  0  0  0  0  0
   24.7691   16.9172   96.5557 C   0  0  0  0  0  0  0  0  0  0  0  0
   26.4127   18.5452   95.9969 C   0  0  0  0  0  0  0  0  0  0  0  0
   25.7143   15.9442   96.3953 C   0  0  0  0  0  0  0  0  0  0  0  0
   27.3730   17.5706   95.8328 C   0  0  0  0  0  0  0  0  0  0  0  0
   27.0212   16.2478   96.0345 C   0  0  0  0  0  0  0  0  0  0  0  0
   26.8038   19.9635   95.7763 C   0  0  0  0  0  0  0  0  0  0  0  0
   28.1740   20.0716   95.3190 N   0  0  1  0  0  4  0  0  0  0  0  0
   30.0525   21.4121   96.1903 C   0  0  0  0  0  0  0  0  0  0  0  0
   28.7312   21.3684   95.4902 C   0  0  0  0  0  0  0  0  0  0  0  0
   30.8970   20.2914   95.9142 N   0  0  0  0  0  0  0  0  0  0  0  0
   30.3436   19.0975   95.3453 C   0  0  0  0  0  0  0  0  0  0  0  0
   28.9196   19.0003   95.9120 C   0  0  0  0  0  0  0  0  0  0  0  0
   32.2742   20.3520   96.1902 C   0  0  0  0  0  0  0  0  0  0  0  0
   33.1301   19.1999   96.3423 C   0  0  0  0  0  0  0  0  0  0  0  0
   35.2752   18.1490   95.9729 C   0  0  0  0  0  0  0  0  0  0  0  0
   34.4068   19.2277   95.8443 C   0  0  0  0  0  0  0  0  0  0  0  0
   34.8832   16.9956   96.6129 C   0  0  0  0  0  0  0  0  0  0  0  0
   33.5861   16.9636   97.1200 C   0  0  0  0  0  0  0  0  0  0  0  0
   32.7393   18.0428   96.9832 C   0  0  0  0  0  0  0  0  0  0  0  0
   32.8385   21.4852   96.3207 O   0  0  0  0  0  0  0  0  0  0  0  0
   35.7565   15.8814   96.7549 N   0  0  0  0  0  4  0  0  0  0  0  0
   37.0014   15.9659   96.1931 O   0  0  0  0  0  1  0  0  0  0  0  0
   35.3844   14.8724   97.3725 O   0  0  0  0  0  0  0  0  0  0  0  0
   34.8768   20.3813   95.1630 N   0  0  0  0  0  4  0  0  0  0  0  0
   34.1444   21.5522   95.2498 O   0  0  0  0  0  1  0  0  0  0  0  0
   25.3341   14.6557   96.6015 F   0  0  0  0  0  0  0  0  0  0  0  0
   35.9277   20.3034   94.5141 O   0  0  0  0  0  0  0  0  0  0  0  0
  1  2  2  0
  1  3  1  0
  2  4  1  0
  3  5  2  0
  3  7  1  0
  4  6  2  0
  4 27  1  0
  5  6  1  0
  8  7  1  1
  8 10  1  0
  8 13  1  0
 10  9  1  0
  9 11  1  0
 11 12  1  0
 11 14  1  0
 12 13  1  0
 14 15  1  0
 14 21  2  0
 15 17  1  0
 15 20  2  0
 17 16  2  0
 16 18  1  0
 17 25  1  0
 18 19  2  0
 18 22  1  0
 19 20  1  0
 22 23  1  0
 22 24  2  0
 25 26  1  0
 25 28  2  0
M  CHG  5   8   1  22   1  23  -1  25   1  26  -1
M  END
$$$$
