
     RDKit          3D

 28 30  0  0  0  0  0  0  0  0999 V2000
   28.0522   17.9944   96.1114 C   0  0  0  0  0  0  0  0  0  0  0  0
   27.4254   16.7776   96.1852 C   0  0  0  0  0  0  0  0  0  0  0  0
   27.3170   19.1541   96.0199 C   0  0  0  0  0  0  0  0  0  0  0  0
   26.0520   16.6592   96.1714 C   0  0  0  0  0  0  0  0  0  0  0  0
   25.9328   19.0229   96.0068 C   0  0  0  0  0  0  0  0  0  0  0  0
   25.3003   17.8031   96.0807 C   0  0  0  0  0  0  0  0  0  0  0  0
   27.9598   20.5094   95.9368 C   0  0  0  0  0  0  0  0  0  0  0  0
   29.1448   20.4432   95.0690 N   0  0  1  0  0  4  0  0  0  0  0  0
   31.5163   20.8180   95.6403 C   0  0  0  0  0  0  0  0  0  0  0  0
   30.1463   21.3865   95.4483 C   0  0  0  0  0  0  0  0  0  0  0  0
   31.4876   19.6617   96.5065 N   0  0  0  0  0  0  0  0  0  0  0  0
   30.2238   18.9533   96.5653 C   0  0  0  0  0  0  0  0  0  0  0  0
   29.6515   19.0980   95.1472 C   0  0  0  0  0  0  0  0  0  0  0  0
   32.5663   19.2010   97.2644 C   0  0  0  0  0  0  0  0  0  0  0  0
   32.3620   18.9258   98.6696 C   0  0  0  0  0  0  0  0  0  0  0  0
   31.3271   17.6709  100.4494 C   0  0  0  0  0  0  0  0  0  0  0  0
   31.5159   17.9273   99.0992 C   0  0  0  0  0  0  0  0  0  0  0  0
   32.0087   18.4417  101.3564 C   0  0  0  0  0  0  0  0  0  0  0  0
   32.8680   19.4549  100.9538 C   0  0  0  0  0  0  0  0  0  0  0  0
   33.0347   19.6857   99.5960 C   0  0  0  0  0  0  0  0  0  0  0  0
   33.7266   19.0129   96.7661 O   0  0  0  0  0  0  0  0  0  0  0  0
   31.8499   18.2189  102.7502 N   0  0  0  0  0  4  0  0  0  0  0  0
   31.0357   17.2205  103.1819 O   0  0  0  0  0  1  0  0  0  0  0  0
   32.4440   18.9225  103.5978 O   0  0  0  0  0  0  0  0  0  0  0  0
   30.8238   17.1456   98.1382 N   0  0  0  0  0  4  0  0  0  0  0  0
   31.4453   16.6988   97.0012 O   0  0  0  0  0  1  0  0  0  0  0  0
   25.4501   15.4227   96.2471 F   0  0  0  0  0  0  0  0  0  0  0  0
   29.6281   16.8372   98.2917 O   0  0  0  0  0  0  0  0  0  0  0  0
  1  2  2  0
  1  3  1  0
  2  4  1  0
  3  5  2  0
  7  3  1  1
  4  6  2  0
  4 27  1  0
  5  6  1  0
  8  7  1  1
  8 10  1  0
  8 13  1  0
 10  9  1  6
  9 11  1  6
 12 11  1  1
 11 14  1  0
 13 12  1  6
 14 15  1  0
 14 21  2  0
 15 17  1  0
 15 20  2  0
 17 16  2  0
 16 18  1  0
 17 25  1  0
 18 19  2  0
 18 22  1  0
 19 20  1  0
 22 23  1  0
 22 24  2  0
 25 26  1  0
 25 28  2  0
M  CHG  5   8   1  22   1  23  -1  25   1  26  -1
M  END
$$$$
