
     RDKit          3D

 28 30  0  0  0  0  0  0  0  0999 V2000
   26.6777   18.3465   97.4604 C   0  0  0  0  0  0  0  0  0  0  0  0
   25.9017   17.5373   96.6717 C   0  0  0  0  0  0  0  0  0  0  0  0
   27.7311   19.0468   96.9188 C   0  0  0  0  0  0  0  0  0  0  0  0
   26.1354   17.3888   95.3214 C   0  0  0  0  0  0  0  0  0  0  0  0
   27.9578   18.8896   95.5559 C   0  0  0  0  0  0  0  0  0  0  0  0
   27.1808   18.0781   94.7613 C   0  0  0  0  0  0  0  0  0  0  0  0
   28.6086   19.9452   97.7435 C   0  0  0  0  0  0  0  0  0  0  0  0
   29.5693   20.6360   96.8709 N   0  0  1  0  0  4  0  0  0  0  0  0
   31.9934   20.2521   96.6121 C   0  0  0  0  0  0  0  0  0  0  0  0
   30.8635   20.7363   97.4640 C   0  0  0  0  0  0  0  0  0  0  0  0
   31.7256   18.9333   96.0857 N   0  0  0  0  0  0  0  0  0  0  0  0
   30.3251   18.5729   95.9794 C   0  0  0  0  0  0  0  0  0  0  0  0
   29.6266   19.8973   95.6367 C   0  0  0  0  0  0  0  0  0  0  0  0
   32.7004   18.0163   95.6868 C   0  0  0  0  0  0  0  0  0  0  0  0
   34.0576   18.1965   96.1536 C   0  0  0  0  0  0  0  0  0  0  0  0
   35.6553   19.1329   97.6976 C   0  0  0  0  0  0  0  0  0  0  0  0
   34.3503   18.9666   97.2576 C   0  0  0  0  0  0  0  0  0  0  0  0
   36.6581   18.5069   97.0016 C   0  0  0  0  0  0  0  0  0  0  0  0
   36.3941   17.7247   95.8857 C   0  0  0  0  0  0  0  0  0  0  0  0
   35.0781   17.5786   95.4716 C   0  0  0  0  0  0  0  0  0  0  0  0
   32.4415   17.0244   94.9259 O   0  0  0  0  0  0  0  0  0  0  0  0
   38.0108   18.6457   97.4118 N   0  0  0  0  0  4  0  0  0  0  0  0
   38.3403   19.5917   98.3298 O   0  0  0  0  0  1  0  0  0  0  0  0
   38.9143   17.9147   96.9473 O   0  0  0  0  0  0  0  0  0  0  0  0
   33.2926   19.6022   97.9580 N   0  0  0  0  0  4  0  0  0  0  0  0
   33.5413   20.4934   98.9694 O   0  0  0  0  0  1  0  0  0  0  0  0
   25.3385   16.5684   94.5539 F   0  0  0  0  0  0  0  0  0  0  0  0
   32.1011   19.3745   97.6806 O   0  0  0  0  0  0  0  0  0  0  0  0
  1  2  2  0
  1  3  1  0
  2  4  1  0
  3  5  2  0
  7  3  1  1
  4  6  2  0
  4 27  1  0
  5  6  1  0
  8  7  1  1
  8 10  1  0
  8 13  1  0
 10  9  1  6
  9 11  1  6
 12 11  1  1
 11 14  1  0
 13 12  1  6
 14 15  1  0
 14 21  2  0
 15 17  1  0
 15 20  2  0
 17 16  2  0
 16 18  1  0
 17 25  1  0
 18 19  2  0
 18 22  1  0
 19 20  1  0
 22 23  1  0
 22 24  2  0
 25 26  1  0
 25 28  2  0
M  CHG  5   8   1  22   1  23  -1  25   1  26  -1
M  END
$$$$
