
     RDKit          3D

 28 30  0  0  0  0  0  0  0  0999 V2000
   27.1975   17.2843   96.1207 C   0  0  0  0  0  0  0  0  0  0  0  0
   26.2405   16.3063   96.0995 C   0  0  0  0  0  0  0  0  0  0  0  0
   26.8164   18.6155   96.0805 C   0  0  0  0  0  0  0  0  0  0  0  0
   24.9226   16.6601   96.0390 C   0  0  0  0  0  0  0  0  0  0  0  0
   25.4895   18.9820   96.0193 C   0  0  0  0  0  0  0  0  0  0  0  0
   24.5246   17.9906   95.9981 C   0  0  0  0  0  0  0  0  0  0  0  0
   27.8439   19.6911   96.1035 C   0  0  0  0  0  0  0  0  0  0  0  0
   29.1736   19.1509   96.3003 N   0  0  1  0  0  4  0  0  0  0  0  0
   31.2045   19.3494   94.9142 C   0  0  0  0  0  0  0  0  0  0  0  0
   29.8274   18.7918   95.0899 C   0  0  0  0  0  0  0  0  0  0  0  0
   31.9465   19.4673   96.1311 N   0  0  0  0  0  0  0  0  0  0  0  0
   31.2687   19.4197   97.3936 C   0  0  0  0  0  0  0  0  0  0  0  0
   29.8957   20.0600   97.1413 C   0  0  0  0  0  0  0  0  0  0  0  0
   33.3433   19.6231   96.1015 C   0  0  0  0  0  0  0  0  0  0  0  0
   34.2287   19.2776   97.1878 C   0  0  0  0  0  0  0  0  0  0  0  0
   36.0202   17.8981   98.0420 C   0  0  0  0  0  0  0  0  0  0  0  0
   35.1378   18.2638   97.0311 C   0  0  0  0  0  0  0  0  0  0  0  0
   36.0163   18.5467   99.2556 C   0  0  0  0  0  0  0  0  0  0  0  0
   35.0934   19.5774   99.4185 C   0  0  0  0  0  0  0  0  0  0  0  0
   34.2265   19.9262   98.4051 C   0  0  0  0  0  0  0  0  0  0  0  0
   33.8996   20.0983   95.0602 O   0  0  0  0  0  0  0  0  0  0  0  0
   36.9108   18.1876  100.3021 N   0  0  0  0  0  4  0  0  0  0  0  0
   37.8619   17.2404  100.0368 O   0  0  0  0  0  1  0  0  0  0  0  0
   36.8170   18.7271  101.4149 O   0  0  0  0  0  0  0  0  0  0  0  0
   35.1924   17.5435   95.8089 N   0  0  0  0  0  4  0  0  0  0  0  0
   36.2759   16.7166   95.5694 O   0  0  0  0  0  1  0  0  0  0  0  0
   24.0017   15.6607   96.0197 F   0  0  0  0  0  0  0  0  0  0  0  0
   34.2682   17.6769   94.9967 O   0  0  0  0  0  0  0  0  0  0  0  0
  1  2  2  0
  1  3  1  0
  2  4  1  0
  3  5  2  0
  3  7  1  0
  4  6  2  0
  4 27  1  0
  5  6  1  0
  8  7  1  6
  8 10  1  0
  8 13  1  0
 10  9  1  0
  9 11  1  0
 11 12  1  0
 11 14  1  0
 12 13  1  0
 14 15  1  0
 14 21  2  0
 15 17  1  0
 15 20  2  0
 17 16  2  0
 16 18  1  0
 17 25  1  0
 18 19  2  0
 18 22  1  0
 19 20  1  0
 22 23  1  0
 22 24  2  0
 25 26  1  0
 25 28  2  0
M  CHG  5   8   1  22   1  23  -1  25   1  26  -1
M  END
$$$$
