
     RDKit          3D

 28 30  0  0  0  0  0  0  0  0999 V2000
   32.5167   18.2001   95.1985 C   0  0  0  0  0  0  0  0  0  0  0  0
   32.7099   16.8636   95.4198 C   0  0  0  0  0  0  0  0  0  0  0  0
   33.6047   19.0126   94.9247 C   0  0  0  0  0  0  0  0  0  0  0  0
   33.9754   16.3520   95.3669 C   0  0  0  0  0  0  0  0  0  0  0  0
   34.8848   18.5056   94.8692 C   0  0  0  0  0  0  0  0  0  0  0  0
   35.0766   17.1539   95.0934 C   0  0  0  0  0  0  0  0  0  0  0  0
   33.4122   20.4675   94.6810 C   0  0  0  0  0  0  0  0  0  0  0  0
   32.0701   20.8905   95.0252 N   0  0  1  0  0  4  0  0  0  0  0  0
   29.9858   19.5887   95.2393 C   0  0  0  0  0  0  0  0  0  0  0  0
   31.0524   20.1561   94.3570 C   0  0  0  0  0  0  0  0  0  0  0  0
   29.6668   20.4054   96.3691 N   0  0  0  0  0  0  0  0  0  0  0  0
   30.5670   21.4412   96.7841 C   0  0  0  0  0  0  0  0  0  0  0  0
   31.9714   20.9140   96.4551 C   0  0  0  0  0  0  0  0  0  0  0  0
   28.4685   20.2060   97.0767 C   0  0  0  0  0  0  0  0  0  0  0  0
   27.5382   19.1316   96.8250 C   0  0  0  0  0  0  0  0  0  0  0  0
   26.9855   16.7852   97.0019 C   0  0  0  0  0  0  0  0  0  0  0  0
   27.8503   17.8541   97.2114 C   0  0  0  0  0  0  0  0  0  0  0  0
   25.7666   16.9687   96.3903 C   0  0  0  0  0  0  0  0  0  0  0  0
   25.4462   18.2658   95.9958 C   0  0  0  0  0  0  0  0  0  0  0  0
   26.3161   19.3132   96.2120 C   0  0  0  0  0  0  0  0  0  0  0  0
   28.1507   21.0093   98.0112 O   0  0  0  0  0  0  0  0  0  0  0  0
   24.8680   15.8886   96.1669 N   0  0  0  0  0  4  0  0  0  0  0  0
   25.3312   14.6165   96.3667 O   0  0  0  0  0  1  0  0  0  0  0  0
   23.7036   16.1113   95.8026 O   0  0  0  0  0  0  0  0  0  0  0  0
   29.0954   17.5879   97.8397 N   0  0  0  0  0  4  0  0  0  0  0  0
   29.4590   18.3373   98.9448 O   0  0  0  0  0  1  0  0  0  0  0  0
   34.1270   15.0203   95.5921 F   0  0  0  0  0  0  0  0  0  0  0  0
   29.8157   16.6929   97.3797 O   0  0  0  0  0  0  0  0  0  0  0  0
  1  2  2  0
  1  3  1  0
  2  4  1  0
  3  5  2  0
  3  7  1  0
  4  6  2  0
  4 27  1  0
  5  6  1  0
  8  7  1  1
  8 10  1  0
  8 13  1  0
 10  9  1  0
  9 11  1  0
 11 12  1  0
 11 14  1  0
 12 13  1  0
 14 15  1  0
 14 21  2  0
 15 17  1  0
 15 20  2  0
 17 16  2  0
 16 18  1  0
 17 25  1  0
 18 19  2  0
 18 22  1  0
 19 20  1  0
 22 23  1  0
 22 24  2  0
 25 26  1  0
 25 28  2  0
M  CHG  5   8   1  22   1  23  -1  25   1  26  -1
M  END
$$$$
