
     RDKit          3D

 28 30  0  0  0  0  0  0  0  0999 V2000
   30.9848   17.9840   95.6561 C   0  0  0  0  0  0  0  0  0  0  0  0
   31.7744   16.8768   95.8283 C   0  0  0  0  0  0  0  0  0  0  0  0
   31.5319   19.2458   95.7030 C   0  0  0  0  0  0  0  0  0  0  0  0
   33.1311   16.9726   96.0529 C   0  0  0  0  0  0  0  0  0  0  0  0
   32.9011   19.3306   95.9301 C   0  0  0  0  0  0  0  0  0  0  0  0
   33.6966   18.2213   96.1033 C   0  0  0  0  0  0  0  0  0  0  0  0
   30.7064   20.4877   95.5200 C   0  0  0  0  0  0  0  0  0  0  0  0
   29.3009   20.1194   95.2955 N   0  0  1  0  0  4  0  0  0  0  0  0
   28.2303   17.9004   95.4393 C   0  0  0  0  0  0  0  0  0  0  0  0
   29.1673   18.8194   94.7221 C   0  0  0  0  0  0  0  0  0  0  0  0
   28.5206   17.8550   96.8541 N   0  0  0  0  0  0  0  0  0  0  0  0
   29.1983   19.0182   97.3930 C   0  0  0  0  0  0  0  0  0  0  0  0
   28.6368   20.1880   96.5709 C   0  0  0  0  0  0  0  0  0  0  0  0
   28.1992   16.7950   97.7047 C   0  0  0  0  0  0  0  0  0  0  0  0
   28.5420   16.8991   99.1060 C   0  0  0  0  0  0  0  0  0  0  0  0
   27.9215   16.9643  101.4350 C   0  0  0  0  0  0  0  0  0  0  0  0
   27.5824   16.8642  100.0936 C   0  0  0  0  0  0  0  0  0  0  0  0
   29.2474   17.1005  101.7594 C   0  0  0  0  0  0  0  0  0  0  0  0
   30.2368   17.1389  100.7865 C   0  0  0  0  0  0  0  0  0  0  0  0
   29.8643   17.0362   99.4541 C   0  0  0  0  0  0  0  0  0  0  0  0
   27.6145   15.7369   97.2945 O   0  0  0  0  0  0  0  0  0  0  0  0
   29.6462   17.2068  103.1184 N   0  0  0  0  0  4  0  0  0  0  0  0
   28.7125   17.1158  104.1012 O   0  0  0  0  0  1  0  0  0  0  0  0
   30.8435   17.3834  103.4377 O   0  0  0  0  0  0  0  0  0  0  0  0
   26.2186   16.7224   99.7285 N   0  0  0  0  0  4  0  0  0  0  0  0
   25.2692   16.3546  100.6462 O   0  0  0  0  0  1  0  0  0  0  0  0
   33.8993   15.8420   96.2222 F   0  0  0  0  0  0  0  0  0  0  0  0
   25.8341   16.9264   98.5628 O   0  0  0  0  0  0  0  0  0  0  0  0
  1  2  2  0
  1  3  1  0
  2  4  1  0
  3  5  2  0
  7  3  1  1
  4  6  2  0
  4 27  1  0
  5  6  1  0
  8  7  1  1
  8 10  1  0
  8 13  1  0
 10  9  1  6
  9 11  1  6
 12 11  1  1
 11 14  1  0
 13 12  1  6
 14 15  1  0
 14 21  2  0
 15 17  1  0
 15 20  2  0
 17 16  2  0
 16 18  1  0
 17 25  1  0
 18 19  2  0
 18 22  1  0
 19 20  1  0
 22 23  1  0
 22 24  2  0
 25 26  1  0
 25 28  2  0
M  CHG  5   8   1  22   1  23  -1  25   1  26  -1
M  END
$$$$
