
     RDKit          3D

 35 37  0  0  0  0  0  0  0  0999 V2000
   47.5583   32.1259   -0.9266 O   0  0  0  0  0  0  0  0  0  0  0  0
   44.9577   27.3929    0.2666 C   0  0  0  0  0  0  0  0  0  0  0  0
   47.4446   27.3149    0.4890 C   0  0  2  0  0  0  0  0  0  0  0  0
   45.9883   32.5836   -3.1553 O   0  0  0  0  0  0  0  0  0  0  0  0
   48.2599   27.9314   -0.5943 C   0  0  1  0  0  0  0  0  0  0  0  0
   44.9009   23.7934   -2.3445 N   0  0  0  0  0  0  0  0  0  0  0  0
   48.2927   29.3813   -0.1538 C   0  0  1  0  0  0  0  0  0  0  0  0
   48.3353   29.1703    1.3524 C   0  0  1  0  0  0  0  0  0  0  0  0
   46.7436   24.8799   -1.3516 N   0  0  0  0  0  0  0  0  0  0  0  0
   48.0426   30.4253    2.1098 C   0  0  0  0  0  0  0  0  0  0  0  0
   47.7494   30.4381   -3.1112 O   0  0  0  0  0  0  0  0  0  0  0  0
   48.5664   32.9073   -3.2380 O   0  0  0  0  0  0  0  0  0  0  0  0
   43.9843   26.6810   -0.3578 N   0  0  0  0  0  0  0  0  0  0  0  0
   49.2830   32.1134    1.0540 O   0  0  0  0  0  0  0  0  0  0  0  0
   46.7623   30.3205    2.6423 O   0  0  0  0  0  0  0  0  0  0  0  0
   46.1641   26.8561    0.0133 N   0  0  0  0  0  0  0  0  0  0  0  0
   42.6522   24.5195   -2.0713 N   0  0  0  0  0  0  0  0  0  0  0  0
   44.0392   24.6723   -1.8052 C   0  0  0  0  0  0  0  0  0  0  0  0
   49.5704   27.4624   -0.5947 O   0  0  0  0  0  0  0  0  0  0  0  0
   46.2368   23.8982   -2.1189 C   0  0  0  0  0  0  0  0  0  0  0  0
   45.9315   25.7933   -0.7818 C   0  0  0  0  0  0  0  0  0  0  0  0
   44.5719   25.6734   -1.0210 C   0  0  0  0  0  0  0  0  0  0  0  0
   49.3937   30.0594   -0.6229 O   0  0  0  0  0  0  0  0  0  0  0  0
   43.1558   29.5286    3.5363 O   0  0  0  0  0  0  0  0  0  0  0  0
   44.4829   31.8670    4.0015 O   0  0  0  0  0  0  0  0  0  0  0  0
   43.3014   30.4892    5.9303 O   0  0  0  0  0  0  0  0  0  0  0  0
   48.1370   29.5276    4.7082 O   0  0  0  0  0  0  0  0  0  0  0  0
   47.0812   31.8664    4.9472 O   0  0  0  0  0  0  0  0  0  0  0  0
   47.2929   28.2336    1.5067 O   0  0  0  0  0  0  0  0  0  0  0  0
   50.2024   32.6106   -1.3521 O   0  0  0  0  0  0  0  0  0  0  0  0
   45.5572   29.5163    4.9463 O   0  0  0  0  0  0  0  0  0  0  0  0
   49.1116   31.7205   -0.3922 P   0  0  1  0  0  5  0  0  0  0  0  0
   47.5043   32.0236   -2.6125 P   0  0  2  0  0  5  0  0  0  0  0  0
   46.8960   30.3071    4.3387 P   0  0  1  0  0  5  0  0  0  0  0  0
   44.1201   30.3417    4.6692 P   0  0  1  0  0  5  0  0  0  0  0  0
 32  1  1  0
  1 33  1  0
  2 13  2  0
 16  2  1  0
  3  5  1  0
  3 16  1  6
 29  3  1  0
 33  4  1  6
  7  5  1  0
  5 19  1  1
 18  6  1  0
 20  6  2  0
  8  7  1  0
  7 23  1  6
  8 10  1  1
  8 29  1  0
  9 20  1  0
 21  9  2  0
 15 10  1  0
 33 11  1  0
 33 12  2  0
 22 13  1  0
 32 14  2  0
 34 15  1  0
 16 21  1  0
 18 17  1  0
 22 18  2  0
 21 22  1  0
 23 32  1  0
 35 24  1  6
 35 25  1  0
 35 26  2  0
 34 27  2  0
 34 28  1  1
 32 30  1  6
 31 34  1  0
 31 35  1  0
M  END
$$$$
