
     RDKit          3D

 35 37  0  0  0  0  0  0  0  0999 V2000
   71.5596   32.3845  -50.5837 O   0  0  0  0  0  0  0  0  0  0  0  0
   69.4148   27.0188  -54.8045 C   0  0  0  0  0  0  0  0  0  0  0  0
   69.6224   28.3203  -52.6825 C   0  0  2  0  0  0  0  0  0  0  0  0
   69.4480   33.4301  -49.1383 O   0  0  0  0  0  0  0  0  0  0  0  0
   70.9028   29.0798  -52.7266 C   0  0  1  0  0  0  0  0  0  0  0  0
   70.5146   23.2122  -52.7852 N   0  0  0  0  0  0  0  0  0  0  0  0
   70.4807   30.3324  -53.4682 C   0  0  1  0  0  0  0  0  0  0  0  0
   69.0694   30.4700  -52.9164 C   0  0  1  0  0  0  0  0  0  0  0  0
   70.3175   25.3768  -51.8698 N   0  0  0  0  0  0  0  0  0  0  0  0
   68.2450   31.4386  -53.7015 C   0  0  0  0  0  0  0  0  0  0  0  0
   69.1857   30.9737  -50.4048 O   0  0  0  0  0  0  0  0  0  0  0  0
   69.3285   33.2131  -51.7261 O   0  0  0  0  0  0  0  0  0  0  0  0
   69.5613   25.7306  -55.2088 N   0  0  0  0  0  0  0  0  0  0  0  0
   71.5755   29.8074  -51.0902 O   0  0  0  0  0  0  0  0  0  0  0  0
   67.4704   30.7164  -54.6027 O   0  0  0  0  0  0  0  0  0  0  0  0
   69.6686   27.1268  -53.4886 N   0  0  0  0  0  0  0  0  0  0  0  0
   70.1259   22.7228  -55.0804 N   0  0  0  0  0  0  0  0  0  0  0  0
   70.1815   23.6545  -54.0096 C   0  0  0  0  0  0  0  0  0  0  0  0
   71.3271   29.4650  -51.4582 O   0  0  0  0  0  0  0  0  0  0  0  0
   70.5811   24.0652  -51.7295 C   0  0  0  0  0  0  0  0  0  0  0  0
   69.9774   25.8828  -53.0726 C   0  0  0  0  0  0  0  0  0  0  0  0
   69.9138   25.0008  -54.1394 C   0  0  0  0  0  0  0  0  0  0  0  0
   71.2699   31.4203  -53.1756 O   0  0  0  0  0  0  0  0  0  0  0  0
   67.5664   28.5271  -59.5547 O   0  0  0  0  0  0  0  0  0  0  0  0
   70.0662   29.3147  -58.7958 O   0  0  0  0  0  0  0  0  0  0  0  0
   68.0808   31.0286  -59.1639 O   0  0  0  0  0  0  0  0  0  0  0  0
   67.2442   31.9962  -56.8603 O   0  0  0  0  0  0  0  0  0  0  0  0
   69.6692   31.5837  -56.0917 O   0  0  0  0  0  0  0  0  0  0  0  0
   68.5999   29.1519  -53.0898 O   0  0  0  0  0  0  0  0  0  0  0  0
   73.6774   31.1994  -51.8156 O   0  0  0  0  0  0  0  0  0  0  0  0
   68.0000   29.5216  -56.9900 O   0  0  0  0  0  0  0  0  0  0  0  0
   71.9818   31.1455  -51.6558 P   0  0  1  0  0  5  0  0  0  0  0  0
   69.8758   32.5024  -50.5031 P   0  0  2  0  0  5  0  0  0  0  0  0
   68.1035   30.9675  -56.1621 P   0  0  1  0  0  5  0  0  0  0  0  0
   68.4072   29.6597  -58.6143 P   0  0  1  0  0  5  0  0  0  0  0  0
 32  1  1  0
  1 33  1  0
  2 13  2  0
 16  2  1  0
  3  5  1  0
  3 16  1  6
 29  3  1  0
 33  4  1  1
  7  5  1  0
  5 19  1  1
 18  6  1  0
 20  6  2  0
  8  7  1  0
  7 23  1  1
  8 10  1  6
  8 29  1  0
  9 20  1  0
 21  9  2  0
 15 10  1  0
 33 11  1  0
 33 12  2  0
 22 13  1  0
 32 14  2  0
 34 15  1  0
 16 21  1  0
 18 17  1  0
 22 18  2  0
 21 22  1  0
 23 32  1  0
 35 24  1  6
 35 25  1  0
 35 26  2  0
 34 27  2  0
 34 28  1  1
 32 30  1  6
 31 34  1  0
 31 35  1  0
M  END
$$$$
