
     RDKit          3D

 35 37  0  0  0  0  0  0  0  0999 V2000
   68.3932   29.7060  -57.2409 O   0  0  0  0  0  0  0  0  0  0  0  0
   69.5456   27.7277  -50.7602 C   0  0  0  0  0  0  0  0  0  0  0  0
   70.3167   27.8951  -53.1303 C   0  0  2  0  0  0  0  0  0  0  0  0
   69.1438   31.7762  -58.9119 O   0  0  0  0  0  0  0  0  0  0  0  0
   69.6924   26.9659  -54.1128 C   0  0  1  0  0  0  0  0  0  0  0  0
   72.4120   24.4453  -49.8733 N   0  0  0  0  0  0  0  0  0  0  0  0
   68.4375   27.7286  -54.4880 C   0  0  1  0  0  0  0  0  0  0  0  0
   68.9917   29.1440  -54.4211 C   0  0  1  0  0  0  0  0  0  0  0  0
   72.0670   25.6111  -51.8942 N   0  0  0  0  0  0  0  0  0  0  0  0
   67.9114   30.1771  -54.4212 C   0  0  0  0  0  0  0  0  0  0  0  0
   70.9519   29.7626  -58.2933 O   0  0  0  0  0  0  0  0  0  0  0  0
   70.1749   31.5231  -56.5390 O   0  0  0  0  0  0  0  0  0  0  0  0
   69.8383   26.9862  -49.6608 N   0  0  0  0  0  0  0  0  0  0  0  0
   70.4007   28.2442  -56.3858 O   0  0  0  0  0  0  0  0  0  0  0  0
   67.8919   30.7827  -53.1695 O   0  0  0  0  0  0  0  0  0  0  0  0
   70.3193   27.3546  -51.7946 N   0  0  0  0  0  0  0  0  0  0  0  0
   71.1898   24.8907  -47.8817 N   0  0  0  0  0  0  0  0  0  0  0  0
   71.4627   25.1628  -49.2490 C   0  0  0  0  0  0  0  0  0  0  0  0
   70.4610   26.8283  -55.2649 O   0  0  0  0  0  0  0  0  0  0  0  0
   72.7088   24.6688  -51.1804 C   0  0  0  0  0  0  0  0  0  0  0  0
   71.1041   26.3647  -51.3255 C   0  0  0  0  0  0  0  0  0  0  0  0
   70.8127   26.1252  -49.9921 C   0  0  0  0  0  0  0  0  0  0  0  0
   67.9673   27.4048  -55.7395 O   0  0  0  0  0  0  0  0  0  0  0  0
   65.7549   34.6613  -52.3921 O   0  0  0  0  0  0  0  0  0  0  0  0
   67.4583   33.0754  -53.8165 O   0  0  0  0  0  0  0  0  0  0  0  0
   67.6295   33.3531  -51.1882 O   0  0  0  0  0  0  0  0  0  0  0  0
   65.5609   29.6477  -53.4228 O   0  0  0  0  0  0  0  0  0  0  0  0
   66.5910   29.4835  -51.0662 O   0  0  0  0  0  0  0  0  0  0  0  0
   69.6476   29.1006  -53.1738 O   0  0  0  0  0  0  0  0  0  0  0  0
   68.9373   27.2741  -58.3349 O   0  0  0  0  0  0  0  0  0  0  0  0
   65.6344   31.8916  -52.1299 O   0  0  0  0  0  0  0  0  0  0  0  0
   68.9779   28.1599  -56.8799 P   0  0  1  0  0  5  0  0  0  0  0  0
   69.6815   30.6941  -57.7092 P   0  0  2  0  0  5  0  0  0  0  0  0
   66.3939   30.4377  -52.4398 P   0  0  1  0  0  5  0  0  0  0  0  0
   66.6447   33.2198  -52.3261 P   0  0  1  0  0  5  0  0  0  0  0  0
 32  1  1  0
  1 33  1  0
  2 13  2  0
 16  2  1  0
  3  5  1  0
  3 16  1  1
 29  3  1  0
 33  4  1  6
  7  5  1  0
  5 19  1  6
 18  6  1  0
 20  6  2  0
  8  7  1  0
  7 23  1  6
  8 10  1  1
  8 29  1  0
  9 20  1  0
 21  9  2  0
 15 10  1  0
 33 11  1  0
 33 12  2  0
 22 13  1  0
 32 14  2  0
 34 15  1  0
 16 21  1  0
 18 17  1  0
 22 18  2  0
 21 22  1  0
 23 32  1  0
 35 24  1  6
 35 25  1  0
 35 26  2  0
 34 27  2  0
 34 28  1  1
 32 30  1  6
 31 34  1  0
 31 35  1  0
M  END
$$$$
