
     RDKit          3D

 35 37  0  0  0  0  0  0  0  0999 V2000
   83.6647   50.6082  -36.7498 O   0  0  0  0  0  0  0  0  0  0  0  0
   86.9862   46.7018  -38.1875 C   0  0  0  0  0  0  0  0  0  0  0  0
   87.5177   49.1085  -38.5941 C   0  0  2  0  0  0  0  0  0  0  0  0
   84.7996   52.7548  -38.0709 O   0  0  0  0  0  0  0  0  0  0  0  0
   86.4430   50.0729  -38.2291 C   0  0  1  0  0  0  0  0  0  0  0  0
   85.1542   46.2428  -42.2137 N   0  0  0  0  0  0  0  0  0  0  0  0
   86.7115   50.2724  -36.7508 C   0  0  1  0  0  0  0  0  0  0  0  0
   88.2302   50.1820  -36.7716 C   0  0  1  0  0  0  0  0  0  0  0  0
   86.1264   48.1545  -41.2327 N   0  0  0  0  0  0  0  0  0  0  0  0
   88.8075   50.0114  -35.4034 C   0  0  0  0  0  0  0  0  0  0  0  0
   82.0612   52.6890  -37.6198 O   0  0  0  0  0  0  0  0  0  0  0  0
   83.2326   51.0905  -39.3091 O   0  0  0  0  0  0  0  0  0  0  0  0
   86.4029   45.6764  -38.8603 N   0  0  0  0  0  0  0  0  0  0  0  0
   84.8045   50.3086  -34.4027 O   0  0  0  0  0  0  0  0  0  0  0  0
   89.2356   48.6946  -35.2756 O   0  0  0  0  0  0  0  0  0  0  0  0
   86.9919   47.8133  -38.9439 N   0  0  0  0  0  0  0  0  0  0  0  0
   85.0049   44.1401  -41.1114 N   0  0  0  0  0  0  0  0  0  0  0  0
   85.4005   45.5044  -41.1183 C   0  0  0  0  0  0  0  0  0  0  0  0
   86.6093   51.3041  -38.8565 O   0  0  0  0  0  0  0  0  0  0  0  0
   85.5139   47.5521  -42.2677 C   0  0  0  0  0  0  0  0  0  0  0  0
   86.4014   47.4681  -40.1050 C   0  0  0  0  0  0  0  0  0  0  0  0
   86.0287   46.1342  -40.0649 C   0  0  0  0  0  0  0  0  0  0  0  0
   86.2616   51.4852  -36.2831 O   0  0  0  0  0  0  0  0  0  0  0  0
   90.1970   45.8508  -31.5318 O   0  0  0  0  0  0  0  0  0  0  0  0
   92.0827   47.8230  -31.5508 O   0  0  0  0  0  0  0  0  0  0  0  0
   91.2389   46.6347  -33.7623 O   0  0  0  0  0  0  0  0  0  0  0  0
   87.2420   48.7728  -33.6007 O   0  0  0  0  0  0  0  0  0  0  0  0
   88.1818   46.4157  -34.0508 O   0  0  0  0  0  0  0  0  0  0  0  0
   88.4040   49.0135  -37.5413 O   0  0  0  0  0  0  0  0  0  0  0  0
   84.0842   52.7325  -35.1010 O   0  0  0  0  0  0  0  0  0  0  0  0
   89.5940   48.3510  -32.5997 O   0  0  0  0  0  0  0  0  0  0  0  0
   84.7283   51.2333  -35.5920 P   0  0  1  0  0  5  0  0  0  0  0  0
   83.4191   51.7605  -37.9612 P   0  0  2  0  0  5  0  0  0  0  0  0
   88.5432   48.0496  -33.8613 P   0  0  1  0  0  5  0  0  0  0  0  0
   90.7757   47.1690  -32.4273 P   0  0  1  0  0  5  0  0  0  0  0  0
 32  1  1  0
  1 33  1  0
  2 13  2  0
 16  2  1  0
  3  5  1  0
  3 16  1  1
 29  3  1  0
 33  4  1  6
  7  5  1  0
  5 19  1  6
 18  6  1  0
 20  6  2  0
  8  7  1  0
  7 23  1  6
  8 10  1  1
  8 29  1  0
  9 20  1  0
 21  9  2  0
 15 10  1  0
 33 11  1  0
 33 12  2  0
 22 13  1  0
 32 14  2  0
 34 15  1  0
 16 21  1  0
 18 17  1  0
 22 18  2  0
 21 22  1  0
 23 32  1  0
 35 24  1  1
 35 25  1  0
 35 26  2  0
 34 27  2  0
 34 28  1  6
 32 30  1  1
 31 34  1  0
 31 35  1  0
M  END
$$$$
