
     RDKit          3D

 35 37  0  0  0  0  0  0  0  0999 V2000
   71.5691   31.9467  -57.9660 O   0  0  0  0  0  0  0  0  0  0  0  0
   68.5166   26.9456  -52.2889 C   0  0  0  0  0  0  0  0  0  0  0  0
   70.0558   28.2851  -53.7742 C   0  0  2  0  0  0  0  0  0  0  0  0
   72.1494   32.4080  -55.3395 O   0  0  0  0  0  0  0  0  0  0  0  0
   69.7962   28.1744  -55.2520 C   0  0  1  0  0  0  0  0  0  0  0  0
   71.3138   23.4674  -52.6651 N   0  0  0  0  0  0  0  0  0  0  0  0
   69.4661   29.5552  -55.6245 C   0  0  1  0  0  0  0  0  0  0  0  0
   68.7397   29.9963  -54.3605 C   0  0  1  0  0  0  0  0  0  0  0  0
   71.4545   25.5716  -53.5797 N   0  0  0  0  0  0  0  0  0  0  0  0
   67.2802   29.5980  -54.4207 C   0  0  0  0  0  0  0  0  0  0  0  0
   70.2169   33.9395  -56.6540 O   0  0  0  0  0  0  0  0  0  0  0  0
   72.7462   34.1752  -57.1245 O   0  0  0  0  0  0  0  0  0  0  0  0
   68.5202   25.6915  -51.7983 N   0  0  0  0  0  0  0  0  0  0  0  0
   72.7034   29.9893  -56.7954 O   0  0  0  0  0  0  0  0  0  0  0  0
   66.5106   30.7390  -54.2128 O   0  0  0  0  0  0  0  0  0  0  0  0
   69.5988   27.1358  -53.0380 N   0  0  0  0  0  0  0  0  0  0  0  0
   69.5003   22.8306  -51.2849 N   0  0  0  0  0  0  0  0  0  0  0  0
   70.1542   23.7941  -52.0709 C   0  0  0  0  0  0  0  0  0  0  0  0
   70.8042   27.5633  -55.9527 O   0  0  0  0  0  0  0  0  0  0  0  0
   71.9834   24.3465  -53.4279 C   0  0  0  0  0  0  0  0  0  0  0  0
   70.2991   25.9676  -53.0153 C   0  0  0  0  0  0  0  0  0  0  0  0
   69.6208   25.0553  -52.2341 C   0  0  0  0  0  0  0  0  0  0  0  0
   70.3791   30.4573  -55.9089 O   0  0  0  0  0  0  0  0  0  0  0  0
   66.1684   30.8401  -51.2153 O   0  0  0  0  0  0  0  0  0  0  0  0
   64.4925   32.8936  -50.5499 O   0  0  0  0  0  0  0  0  0  0  0  0
   66.2244   33.1392  -52.4736 O   0  0  0  0  0  0  0  0  0  0  0  0
   64.0918   30.0815  -55.0955 O   0  0  0  0  0  0  0  0  0  0  0  0
   64.9526   28.9456  -52.8799 O   0  0  0  0  0  0  0  0  0  0  0  0
   69.4207   29.4145  -53.3194 O   0  0  0  0  0  0  0  0  0  0  0  0
   70.8564   29.3579  -58.4325 O   0  0  0  0  0  0  0  0  0  0  0  0
   64.1758   31.5601  -52.9405 O   0  0  0  0  0  0  0  0  0  0  0  0
   71.3221   30.4687  -57.2195 P   0  0  1  0  0  5  0  0  0  0  0  0
   71.6956   33.1345  -56.7960 P   0  0  2  0  0  5  0  0  0  0  0  0
   64.9238   30.3492  -53.8527 P   0  0  1  0  0  5  0  0  0  0  0  0
   65.3009   32.1354  -51.8245 P   0  0  1  0  0  5  0  0  0  0  0  0
 32  1  1  0
  1 33  1  0
  2 13  2  0
 16  2  1  0
  3  5  1  0
  3 16  1  1
 29  3  1  0
 33  4  1  1
  7  5  1  0
  5 19  1  6
 18  6  1  0
 20  6  2  0
  8  7  1  0
  7 23  1  1
 10  8  1  0
  8 29  1  1
  9 20  1  0
 21  9  2  0
 10 15  1  6
 33 11  1  0
 33 12  2  0
 22 13  1  0
 32 14  2  0
 34 15  1  0
 16 21  1  0
 18 17  1  0
 22 18  2  0
 21 22  1  0
 23 32  1  0
 35 24  1  1
 35 25  1  0
 35 26  2  0
 34 27  2  0
 34 28  1  1
 32 30  1  6
 31 34  1  0
 31 35  1  0
M  END
$$$$
