
     RDKit          3D

 35 37  0  0  0  0  0  0  0  0999 V2000
   82.9343   47.5615  -38.3378 O   0  0  0  0  0  0  0  0  0  0  0  0
   87.8251   46.0658  -35.3863 C   0  0  0  0  0  0  0  0  0  0  0  0
   87.7404   46.5085  -37.8433 C   0  0  2  0  0  0  0  0  0  0  0  0
   82.8292   47.6501  -41.0986 O   0  0  0  0  0  0  0  0  0  0  0  0
   86.3833   46.7361  -38.4134 C   0  0  1  0  0  0  0  0  0  0  0  0
   87.2565   41.6945  -35.9747 N   0  0  0  0  0  0  0  0  0  0  0  0
   86.1946   48.2169  -38.1506 C   0  0  1  0  0  0  0  0  0  0  0  0
   87.6301   48.6783  -38.3542 C   0  0  1  0  0  0  0  0  0  0  0  0
   87.3750   43.4083  -37.5905 N   0  0  0  0  0  0  0  0  0  0  0  0
   87.8585   50.0645  -37.8435 C   0  0  0  0  0  0  0  0  0  0  0  0
   82.6613   45.2142  -39.7777 O   0  0  0  0  0  0  0  0  0  0  0  0
   84.8628   46.6022  -39.8641 O   0  0  0  0  0  0  0  0  0  0  0  0
   87.7406   44.9933  -34.5574 N   0  0  0  0  0  0  0  0  0  0  0  0
   84.0236   49.3789  -36.7859 O   0  0  0  0  0  0  0  0  0  0  0  0
   87.3381   50.1425  -36.5563 O   0  0  0  0  0  0  0  0  0  0  0  0
   87.7049   45.6762  -36.6675 N   0  0  0  0  0  0  0  0  0  0  0  0
   87.4369   42.0881  -33.6357 N   0  0  0  0  0  0  0  0  0  0  0  0
   87.4208   42.5727  -34.9709 C   0  0  0  0  0  0  0  0  0  0  0  0
   86.3561   46.5470  -39.7920 O   0  0  0  0  0  0  0  0  0  0  0  0
   87.2343   42.1100  -37.2683 C   0  0  0  0  0  0  0  0  0  0  0  0
   87.5433   44.3390  -36.6292 C   0  0  0  0  0  0  0  0  0  0  0  0
   87.5639   43.9001  -35.3151 C   0  0  0  0  0  0  0  0  0  0  0  0
   85.3199   48.8104  -39.0308 O   0  0  0  0  0  0  0  0  0  0  0  0
   86.7803   53.7922  -37.5851 O   0  0  0  0  0  0  0  0  0  0  0  0
   84.9623   54.4268  -35.6518 O   0  0  0  0  0  0  0  0  0  0  0  0
   84.8793   52.1453  -36.9943 O   0  0  0  0  0  0  0  0  0  0  0  0
   88.8927   51.0126  -34.6558 O   0  0  0  0  0  0  0  0  0  0  0  0
   89.0116   52.3601  -36.8493 O   0  0  0  0  0  0  0  0  0  0  0  0
   88.3150   47.7313  -37.5655 O   0  0  0  0  0  0  0  0  0  0  0  0
   82.9171   50.1962  -39.0197 O   0  0  0  0  0  0  0  0  0  0  0  0
   86.7736   52.4129  -35.1659 O   0  0  0  0  0  0  0  0  0  0  0  0
   83.8301   48.9928  -38.2312 P   0  0  1  0  0  5  0  0  0  0  0  0
   83.3567   46.7434  -39.7548 P   0  0  2  0  0  5  0  0  0  0  0  0
   88.0230   51.4997  -35.7917 P   0  0  1  0  0  5  0  0  0  0  0  0
   85.8238   53.1330  -36.3503 P   0  0  1  0  0  5  0  0  0  0  0  0
 32  1  1  0
  1 33  1  0
  2 13  2  0
 16  2  1  0
  3  5  1  0
  3 16  1  1
 29  3  1  0
 33  4  1  6
  7  5  1  0
  5 19  1  6
 18  6  1  0
 20  6  2  0
  8  7  1  0
  7 23  1  6
  8 10  1  1
  8 29  1  0
  9 20  1  0
 21  9  2  0
 15 10  1  0
 33 11  1  0
 33 12  2  0
 22 13  1  0
 32 14  2  0
 34 15  1  0
 16 21  1  0
 18 17  1  0
 22 18  2  0
 21 22  1  0
 23 32  1  0
 35 24  1  6
 35 25  1  0
 35 26  2  0
 34 27  2  0
 34 28  1  6
 32 30  1  6
 31 34  1  0
 31 35  1  0
M  END
$$$$
