
     RDKit          3D

 35 37  0  0  0  0  0  0  0  0999 V2000
   57.8599   15.9007  -31.2393 O   0  0  0  0  0  0  0  0  0  0  0  0
   55.2245   20.5791  -25.1156 C   0  0  0  0  0  0  0  0  0  0  0  0
   55.8075   19.7654  -27.4324 C   0  0  2  0  0  0  0  0  0  0  0  0
   56.0151   14.7391  -29.5975 O   0  0  0  0  0  0  0  0  0  0  0  0
   57.2041   19.2076  -27.4767 C   0  0  1  0  0  0  0  0  0  0  0  0
   56.1810   24.7530  -26.4295 N   0  0  0  0  0  0  0  0  0  0  0  0
   56.9797   17.8101  -27.8652 C   0  0  1  0  0  0  0  0  0  0  0  0
   55.6618   17.5515  -27.1468 C   0  0  1  0  0  0  0  0  0  0  0  0
   56.2689   22.7839  -27.6122 N   0  0  0  0  0  0  0  0  0  0  0  0
   55.9115   17.1447  -25.7099 C   0  0  0  0  0  0  0  0  0  0  0  0
   56.0482   14.1543  -32.3297 O   0  0  0  0  0  0  0  0  0  0  0  0
   55.2610   16.4309  -31.3960 O   0  0  0  0  0  0  0  0  0  0  0  0
   55.2039   21.7792  -24.5051 N   0  0  0  0  0  0  0  0  0  0  0  0
   58.2016   18.4147  -31.0128 O   0  0  0  0  0  0  0  0  0  0  0  0
   57.2873   17.0680  -25.5139 O   0  0  0  0  0  0  0  0  0  0  0  0
   55.6214   20.7254  -26.3764 N   0  0  0  0  0  0  0  0  0  0  0  0
   55.5104   24.8117  -24.1609 N   0  0  0  0  0  0  0  0  0  0  0  0
   55.7650   24.0889  -25.3385 C   0  0  0  0  0  0  0  0  0  0  0  0
   58.0735   19.9371  -28.2463 O   0  0  0  0  0  0  0  0  0  0  0  0
   56.4399   24.1157  -27.5827 C   0  0  0  0  0  0  0  0  0  0  0  0
   55.8556   22.0548  -26.5596 C   0  0  0  0  0  0  0  0  0  0  0  0
   55.5930   22.7213  -25.3808 C   0  0  0  0  0  0  0  0  0  0  0  0
   56.8470   17.4276  -29.1159 O   0  0  0  0  0  0  0  0  0  0  0  0
   60.8752   16.5067  -21.4479 O   0  0  0  0  0  0  0  0  0  0  0  0
   58.1912   16.8777  -21.0919 O   0  0  0  0  0  0  0  0  0  0  0  0
   59.7571   18.8656  -21.6887 O   0  0  0  0  0  0  0  0  0  0  0  0
   57.5349   19.0357  -23.7452 O   0  0  0  0  0  0  0  0  0  0  0  0
   56.7112   16.6882  -22.8788 O   0  0  0  0  0  0  0  0  0  0  0  0
   54.9401   18.7138  -27.2664 O   0  0  0  0  0  0  0  0  0  0  0  0
   59.5869   16.9797  -29.4280 O   0  0  0  0  0  0  0  0  0  0  0  0
   59.3070   17.1185  -23.6000 O   0  0  0  0  0  0  0  0  0  0  0  0
   58.0521   17.1640  -30.1577 P   0  0  1  0  0  5  0  0  0  0  0  0
   56.2862   15.3426  -31.1523 P   0  0  2  0  0  5  0  0  0  0  0  0
   57.7123   17.5433  -23.9670 P   0  0  1  0  0  5  0  0  0  0  0  0
   59.5489   17.3933  -21.9544 P   0  0  1  0  0  5  0  0  0  0  0  0
 32  1  1  0
  1 33  1  0
  2 13  2  0
 16  2  1  0
  3  5  1  0
  3 16  1  1
 29  3  1  0
 33  4  1  1
  7  5  1  0
  5 19  1  6
 18  6  1  0
 20  6  2  0
  8  7  1  0
  7 23  1  6
 10  8  1  0
  8 29  1  1
  9 20  1  0
 21  9  2  0
 10 15  1  6
 33 11  1  0
 33 12  2  0
 22 13  1  0
 32 14  2  0
 34 15  1  0
 16 21  1  0
 18 17  1  0
 22 18  2  0
 21 22  1  0
 23 32  1  0
 35 24  1  1
 35 25  1  0
 35 26  2  0
 34 27  2  0
 34 28  1  1
 32 30  1  1
 31 34  1  0
 31 35  1  0
M  END
$$$$
