
     RDKit          3D

 35 37  0  0  0  0  0  0  0  0999 V2000
   79.2438   53.4308  -40.6723 O   0  0  0  0  0  0  0  0  0  0  0  0
   82.2370   54.0131  -36.3950 C   0  0  0  0  0  0  0  0  0  0  0  0
   81.9571   56.1098  -37.7237 C   0  0  2  0  0  0  0  0  0  0  0  0
   77.4878   52.8881  -38.6076 O   0  0  0  0  0  0  0  0  0  0  0  0
   81.3013   55.7347  -39.0072 C   0  0  1  0  0  0  0  0  0  0  0  0
   86.6091   53.8779  -37.1975 N   0  0  0  0  0  0  0  0  0  0  0  0
   79.8374   55.7737  -38.6162 C   0  0  1  0  0  0  0  0  0  0  0  0
   79.8853   56.9354  -37.6348 C   0  0  1  0  0  0  0  0  0  0  0  0
   85.0144   55.4593  -37.9174 N   0  0  0  0  0  0  0  0  0  0  0  0
   78.6448   57.0300  -36.8062 C   0  0  0  0  0  0  0  0  0  0  0  0
   76.9424   51.9779  -41.1729 O   0  0  0  0  0  0  0  0  0  0  0  0
   76.8344   54.5012  -40.5386 O   0  0  0  0  0  0  0  0  0  0  0  0
   83.2467   53.1744  -36.0466 N   0  0  0  0  0  0  0  0  0  0  0  0
   78.8832   55.4774  -42.2782 O   0  0  0  0  0  0  0  0  0  0  0  0
   78.4272   55.7925  -36.2105 O   0  0  0  0  0  0  0  0  0  0  0  0
   82.7062   55.0181  -37.1549 N   0  0  0  0  0  0  0  0  0  0  0  0
   86.0676   51.9979  -35.8444 N   0  0  0  0  0  0  0  0  0  0  0  0
   85.6735   53.1721  -36.5401 C   0  0  0  0  0  0  0  0  0  0  0  0
   81.4980   56.6944  -39.9959 O   0  0  0  0  0  0  0  0  0  0  0  0
   86.2809   55.0078  -37.8773 C   0  0  0  0  0  0  0  0  0  0  0  0
   84.0295   54.7961  -37.2782 C   0  0  0  0  0  0  0  0  0  0  0  0
   84.3797   53.6459  -36.5894 C   0  0  0  0  0  0  0  0  0  0  0  0
   79.0039   56.0182  -39.6828 O   0  0  0  0  0  0  0  0  0  0  0  0
   77.0345   58.4030  -32.8264 O   0  0  0  0  0  0  0  0  0  0  0  0
   74.5479   57.2894  -32.9753 O   0  0  0  0  0  0  0  0  0  0  0  0
   75.7918   58.2897  -35.0887 O   0  0  0  0  0  0  0  0  0  0  0  0
   78.9997   54.8966  -33.8323 O   0  0  0  0  0  0  0  0  0  0  0  0
   79.0384   57.4637  -34.0570 O   0  0  0  0  0  0  0  0  0  0  0  0
   80.9906   56.5555  -36.8461 O   0  0  0  0  0  0  0  0  0  0  0  0
   81.2318   55.2309  -41.1358 O   0  0  0  0  0  0  0  0  0  0  0  0
   76.6659   55.9774  -34.1439 O   0  0  0  0  0  0  0  0  0  0  0  0
   79.5424   55.0665  -40.9852 P   0  0  1  0  0  5  0  0  0  0  0  0
   77.6143   53.2278  -40.2734 P   0  0  2  0  0  5  0  0  0  0  0  0
   78.2887   56.0323  -34.5315 P   0  0  1  0  0  5  0  0  0  0  0  0
   76.0113   57.4918  -33.8248 P   0  0  1  0  0  5  0  0  0  0  0  0
 32  1  1  0
  1 33  1  0
  2 13  2  0
 16  2  1  0
  3  5  1  0
  3 16  1  1
 29  3  1  0
 33  4  1  1
  7  5  1  0
  5 19  1  6
 18  6  1  0
 20  6  2  0
  8  7  1  0
  7 23  1  6
  8 10  1  1
  8 29  1  0
  9 20  1  0
 21  9  2  0
 15 10  1  0
 33 11  1  0
 33 12  2  0
 22 13  1  0
 32 14  2  0
 34 15  1  0
 16 21  1  0
 18 17  1  0
 22 18  2  0
 21 22  1  0
 23 32  1  0
 35 24  1  1
 35 25  1  0
 35 26  2  0
 34 27  2  0
 34 28  1  6
 32 30  1  6
 31 34  1  0
 31 35  1  0
M  END
$$$$
