
     RDKit          3D

 35 37  0  0  0  0  0  0  0  0999 V2000
   83.4959   46.4902  -32.8420 O   0  0  0  0  0  0  0  0  0  0  0  0
   88.5882   48.2110  -37.9003 C   0  0  0  0  0  0  0  0  0  0  0  0
   87.2141   48.0265  -35.7913 C   0  0  2  0  0  0  0  0  0  0  0  0
   81.2731   47.4504  -31.5830 O   0  0  0  0  0  0  0  0  0  0  0  0
   86.6099   49.3498  -35.4074 C   0  0  1  0  0  0  0  0  0  0  0  0
   92.2729   48.5340  -35.3740 N   0  0  0  0  0  0  0  0  0  0  0  0
   85.1694   49.0747  -35.4672 C   0  0  1  0  0  0  0  0  0  0  0  0
   85.1426   48.0946  -36.6329 C   0  0  1  0  0  0  0  0  0  0  0  0
   90.0752   48.2966  -34.7433 N   0  0  0  0  0  0  0  0  0  0  0  0
   85.0870   48.8385  -37.9505 C   0  0  0  0  0  0  0  0  0  0  0  0
   82.9215   49.1637  -33.0511 O   0  0  0  0  0  0  0  0  0  0  0  0
   83.6216   48.1574  -30.7770 O   0  0  0  0  0  0  0  0  0  0  0  0
   89.8995   48.3505  -38.1731 N   0  0  0  0  0  0  0  0  0  0  0  0
   82.9779   46.7113  -35.3262 O   0  0  0  0  0  0  0  0  0  0  0  0
   84.9630   47.9015  -38.9723 O   0  0  0  0  0  0  0  0  0  0  0  0
   88.4078   48.1650  -36.5835 N   0  0  0  0  0  0  0  0  0  0  0  0
   92.9075   48.6465  -37.6508 N   0  0  0  0  0  0  0  0  0  0  0  0
   91.9113   48.5242  -36.6677 C   0  0  0  0  0  0  0  0  0  0  0  0
   87.0978   49.8684  -34.2355 O   0  0  0  0  0  0  0  0  0  0  0  0
   91.3652   48.4209  -34.3910 C   0  0  0  0  0  0  0  0  0  0  0  0
   89.6413   48.2790  -36.0168 C   0  0  0  0  0  0  0  0  0  0  0  0
   90.5836   48.3961  -37.0173 C   0  0  0  0  0  0  0  0  0  0  0  0
   84.5005   48.5425  -34.4684 O   0  0  0  0  0  0  0  0  0  0  0  0
   82.6443   49.9184  -37.3876 O   0  0  0  0  0  0  0  0  0  0  0  0
   80.6312   49.2523  -39.1115 O   0  0  0  0  0  0  0  0  0  0  0  0
   81.6510   51.6440  -39.0930 O   0  0  0  0  0  0  0  0  0  0  0  0
   83.5353   47.3841  -41.1530 O   0  0  0  0  0  0  0  0  0  0  0  0
   82.2777   47.4635  -38.8396 O   0  0  0  0  0  0  0  0  0  0  0  0
   86.2677   47.3198  -36.4918 O   0  0  0  0  0  0  0  0  0  0  0  0
   85.3249   45.8904  -34.7714 O   0  0  0  0  0  0  0  0  0  0  0  0
   83.1727   49.7325  -40.0618 O   0  0  0  0  0  0  0  0  0  0  0  0
   84.0917   46.9870  -34.3256 P   0  0  1  0  0  5  0  0  0  0  0  0
   82.8593   47.8117  -32.0395 P   0  0  2  0  0  5  0  0  0  0  0  0
   83.5296   48.0989  -39.8124 P   0  0  1  0  0  5  0  0  0  0  0  0
   82.0224   50.1903  -38.9176 P   0  0  1  0  0  5  0  0  0  0  0  0
 32  1  1  0
  1 33  1  0
  2 13  2  0
 16  2  1  0
  3  5  1  0
  3 16  1  6
 29  3  1  0
 33  4  1  1
  7  5  1  0
  5 19  1  1
 18  6  1  0
 20  6  2  0
  8  7  1  0
  7 23  1  1
 10  8  1  0
  8 29  1  6
  9 20  1  0
 21  9  2  0
 10 15  1  6
 33 11  1  0
 33 12  2  0
 22 13  1  0
 32 14  2  0
 34 15  1  0
 16 21  1  0
 18 17  1  0
 22 18  2  0
 21 22  1  0
 23 32  1  0
 35 24  1  1
 35 25  1  0
 35 26  2  0
 34 27  2  0
 34 28  1  1
 32 30  1  6
 31 34  1  0
 31 35  1  0
M  END
$$$$
