
     RDKit          3D

 35 37  0  0  0  0  0  0  0  0999 V2000
   72.0965   28.0516  -56.2029 O   0  0  0  0  0  0  0  0  0  0  0  0
   68.6217   34.4727  -54.4855 C   0  0  0  0  0  0  0  0  0  0  0  0
   70.3600   32.8476  -55.3264 C   0  0  2  0  0  0  0  0  0  0  0  0
   69.6507   27.1704  -55.3726 O   0  0  0  0  0  0  0  0  0  0  0  0
   69.9108   31.4265  -55.1209 C   0  0  1  0  0  0  0  0  0  0  0  0
   71.0130   34.9607  -50.7296 N   0  0  0  0  0  0  0  0  0  0  0  0
   69.8576   30.9049  -56.4918 C   0  0  1  0  0  0  0  0  0  0  0  0
   69.4020   32.1587  -57.2269 C   0  0  1  0  0  0  0  0  0  0  0  0
   71.4293   33.6585  -52.5776 N   0  0  0  0  0  0  0  0  0  0  0  0
   67.8936   32.2818  -57.1818 C   0  0  0  0  0  0  0  0  0  0  0  0
   71.9889   26.0188  -54.3652 O   0  0  0  0  0  0  0  0  0  0  0  0
   71.1683   25.6307  -56.7839 O   0  0  0  0  0  0  0  0  0  0  0  0
   68.4626   35.2007  -53.3638 N   0  0  0  0  0  0  0  0  0  0  0  0
   69.8859   28.1351  -57.4656 O   0  0  0  0  0  0  0  0  0  0  0  0
   67.3647   31.0267  -56.8952 O   0  0  0  0  0  0  0  0  0  0  0  0
   69.7463   33.7674  -54.4051 N   0  0  0  0  0  0  0  0  0  0  0  0
   69.0872   36.3275  -50.5802 N   0  0  0  0  0  0  0  0  0  0  0  0
   69.8769   35.4075  -51.2900 C   0  0  0  0  0  0  0  0  0  0  0  0
   70.6666   30.7264  -54.2160 O   0  0  0  0  0  0  0  0  0  0  0  0
   71.8078   34.0811  -51.3603 C   0  0  0  0  0  0  0  0  0  0  0  0
   70.3063   34.0628  -53.1990 C   0  0  0  0  0  0  0  0  0  0  0  0
   69.4986   34.9664  -52.5405 C   0  0  0  0  0  0  0  0  0  0  0  0
   70.9099   30.4234  -57.1155 O   0  0  0  0  0  0  0  0  0  0  0  0
   64.8879   29.1183  -53.9129 O   0  0  0  0  0  0  0  0  0  0  0  0
   66.0973   31.3025  -52.8016 O   0  0  0  0  0  0  0  0  0  0  0  0
   67.2049   30.0027  -54.7623 O   0  0  0  0  0  0  0  0  0  0  0  0
   65.1208   32.0324  -57.9029 O   0  0  0  0  0  0  0  0  0  0  0  0
   65.1551   29.4769  -57.2639 O   0  0  0  0  0  0  0  0  0  0  0  0
   70.0523   33.2032  -56.6166 O   0  0  0  0  0  0  0  0  0  0  0  0
   71.9655   28.5339  -58.8821 O   0  0  0  0  0  0  0  0  0  0  0  0
   65.0791   31.4285  -55.3591 O   0  0  0  0  0  0  0  0  0  0  0  0
   71.2213   28.8610  -57.3783 P   0  0  1  0  0  5  0  0  0  0  0  0
   71.2377   26.7024  -55.7155 P   0  0  2  0  0  5  0  0  0  0  0  0
   65.6917   31.0547  -56.8898 P   0  0  1  0  0  5  0  0  0  0  0  0
   65.8591   30.4426  -54.2358 P   0  0  1  0  0  5  0  0  0  0  0  0
 32  1  1  0
  1 33  1  0
  2 13  2  0
 16  2  1  0
  3  5  1  0
  3 16  1  1
 29  3  1  0
 33  4  1  1
  7  5  1  0
  5 19  1  1
 18  6  1  0
 20  6  2  0
  8  7  1  0
  7 23  1  6
 10  8  1  0
  8 29  1  1
  9 20  1  0
 21  9  2  0
 10 15  1  6
 33 11  1  0
 33 12  2  0
 22 13  1  0
 32 14  2  0
 34 15  1  0
 16 21  1  0
 18 17  1  0
 22 18  2  0
 21 22  1  0
 23 32  1  0
 35 24  1  1
 35 25  1  0
 35 26  2  0
 34 27  2  0
 34 28  1  6
 32 30  1  6
 31 34  1  0
 31 35  1  0
M  END
$$$$
