
     RDKit          3D

 35 37  0  0  0  0  0  0  0  0999 V2000
   88.4060   47.7461  -37.2462 O   0  0  0  0  0  0  0  0  0  0  0  0
   84.4623   52.2279  -37.0189 C   0  0  0  0  0  0  0  0  0  0  0  0
   86.1535   50.4965  -37.6374 C   0  0  2  0  0  0  0  0  0  0  0  0
   90.2112   46.2841  -35.7479 O   0  0  0  0  0  0  0  0  0  0  0  0
   87.5620   50.7377  -37.2178 C   0  0  1  0  0  0  0  0  0  0  0  0
   85.4166   54.6925  -40.5955 N   0  0  0  0  0  0  0  0  0  0  0  0
   87.5497   50.1898  -35.8047 C   0  0  1  0  0  0  0  0  0  0  0  0
   86.5823   49.0331  -36.0077 C   0  0  1  0  0  0  0  0  0  0  0  0
   86.3542   52.6389  -39.9128 N   0  0  0  0  0  0  0  0  0  0  0  0
   86.0903   48.4708  -34.7130 C   0  0  0  0  0  0  0  0  0  0  0  0
   88.5344   44.9984  -37.5484 O   0  0  0  0  0  0  0  0  0  0  0  0
   87.6511   46.0743  -35.3477 O   0  0  0  0  0  0  0  0  0  0  0  0
   84.0051   53.4056  -37.5171 N   0  0  0  0  0  0  0  0  0  0  0  0
   89.9537   49.8034  -37.7658 O   0  0  0  0  0  0  0  0  0  0  0  0
   84.9008   49.1131  -34.3868 O   0  0  0  0  0  0  0  0  0  0  0  0
   85.4203   51.7240  -37.8165 N   0  0  0  0  0  0  0  0  0  0  0  0
   83.7067   55.8166  -39.3826 N   0  0  0  0  0  0  0  0  0  0  0  0
   84.5958   54.7188  -39.5319 C   0  0  0  0  0  0  0  0  0  0  0  0
   88.4655   49.9782  -37.9554 O   0  0  0  0  0  0  0  0  0  0  0  0
   86.2846   53.6636  -40.7815 C   0  0  0  0  0  0  0  0  0  0  0  0
   85.5572   52.6065  -38.8256 C   0  0  0  0  0  0  0  0  0  0  0  0
   84.6774   53.6625  -38.6495 C   0  0  0  0  0  0  0  0  0  0  0  0
   88.7899   49.7720  -35.3809 O   0  0  0  0  0  0  0  0  0  0  0  0
   80.0997   49.0588  -33.1164 O   0  0  0  0  0  0  0  0  0  0  0  0
   81.8185   47.5782  -34.6326 O   0  0  0  0  0  0  0  0  0  0  0  0
   81.7214   50.2220  -34.7572 O   0  0  0  0  0  0  0  0  0  0  0  0
   83.8945   46.9181  -33.4092 O   0  0  0  0  0  0  0  0  0  0  0  0
   85.3563   48.2610  -31.7656 O   0  0  0  0  0  0  0  0  0  0  0  0
   85.5438   49.6897  -36.6992 O   0  0  0  0  0  0  0  0  0  0  0  0
   90.8360   48.0236  -36.0524 O   0  0  0  0  0  0  0  0  0  0  0  0
   82.8372   49.1451  -32.6127 O   0  0  0  0  0  0  0  0  0  0  0  0
   89.4989   48.8930  -36.6524 P   0  0  1  0  0  5  0  0  0  0  0  0
   88.6625   46.2722  -36.4605 P   0  0  2  0  0  5  0  0  0  0  0  0
   84.2395   48.3382  -33.0237 P   0  0  1  0  0  5  0  0  0  0  0  0
   81.6512   49.0555  -33.7997 P   0  0  1  0  0  5  0  0  0  0  0  0
 32  1  1  0
  1 33  1  0
  2 13  2  0
 16  2  1  0
  3  5  1  0
  3 16  1  1
 29  3  1  0
 33  4  1  1
  7  5  1  0
  5 19  1  6
 18  6  1  0
 20  6  2  0
  8  7  1  0
  7 23  1  6
  8 10  1  1
  8 29  1  0
  9 20  1  0
 21  9  2  0
 15 10  1  0
 33 11  1  0
 33 12  2  0
 22 13  1  0
 32 14  2  0
 34 15  1  0
 16 21  1  0
 18 17  1  0
 22 18  2  0
 21 22  1  0
 23 32  1  0
 35 24  1  1
 35 25  1  0
 35 26  2  0
 34 27  2  0
 34 28  1  1
 32 30  1  1
 31 34  1  0
 31 35  1  0
M  END
$$$$
