
     RDKit          3D

 35 37  0  0  0  0  0  0  0  0999 V2000
   45.7894   30.0664    3.9998 O   0  0  0  0  0  0  0  0  0  0  0  0
   45.2333   33.6783   -1.4160 C   0  0  0  0  0  0  0  0  0  0  0  0
   45.7703   33.8203    1.0195 C   0  0  2  0  0  0  0  0  0  0  0  0
   47.7163   29.6425    5.9359 O   0  0  0  0  0  0  0  0  0  0  0  0
   45.8314   32.5248    1.7519 C   0  0  1  0  0  0  0  0  0  0  0  0
   40.8559   33.7794   -0.6379 N   0  0  0  0  0  0  0  0  0  0  0  0
   47.2577   32.0933    1.4751 C   0  0  1  0  0  0  0  0  0  0  0  0
   47.9243   33.4611    1.4809 C   0  0  1  0  0  0  0  0  0  0  0  0
   42.6409   33.8515    0.9019 N   0  0  0  0  0  0  0  0  0  0  0  0
   49.3042   33.4225    0.9076 C   0  0  0  0  0  0  0  0  0  0  0  0
   45.7307   31.5397    6.3415 O   0  0  0  0  0  0  0  0  0  0  0  0
   47.6298   31.8648    4.5897 O   0  0  0  0  0  0  0  0  0  0  0  0
   44.1231   33.6443   -2.1974 N   0  0  0  0  0  0  0  0  0  0  0  0
   45.7925   29.8275    1.3843 O   0  0  0  0  0  0  0  0  0  0  0  0
   49.3497   34.3006   -0.1697 O   0  0  0  0  0  0  0  0  0  0  0  0
   44.8889   33.7616   -0.1190 N   0  0  0  0  0  0  0  0  0  0  0  0
   41.1649   33.6321   -2.9919 N   0  0  0  0  0  0  0  0  0  0  0  0
   41.7023   33.7056   -1.6789 C   0  0  0  0  0  0  0  0  0  0  0  0
   45.7029   32.6943    3.1273 O   0  0  0  0  0  0  0  0  0  0  0  0
   41.3222   33.8514    0.6365 C   0  0  0  0  0  0  0  0  0  0  0  0
   43.5417   33.7794   -0.0990 C   0  0  0  0  0  0  0  0  0  0  0  0
   43.0510   33.7065   -1.3929 C   0  0  0  0  0  0  0  0  0  0  0  0
   47.7622   31.2566    2.4433 O   0  0  0  0  0  0  0  0  0  0  0  0
   52.8816   34.6023   -2.7547 O   0  0  0  0  0  0  0  0  0  0  0  0
   50.8392   33.5595   -4.2334 O   0  0  0  0  0  0  0  0  0  0  0  0
   52.8998   32.1065   -3.4226 O   0  0  0  0  0  0  0  0  0  0  0  0
   48.5787   32.2210   -1.5360 O   0  0  0  0  0  0  0  0  0  0  0  0
   49.1621   34.2903   -2.9570 O   0  0  0  0  0  0  0  0  0  0  0  0
   47.0477   34.1738    0.6373 O   0  0  0  0  0  0  0  0  0  0  0  0
   47.6153   28.5011    2.7259 O   0  0  0  0  0  0  0  0  0  0  0  0
   51.1045   32.7934   -1.6037 O   0  0  0  0  0  0  0  0  0  0  0  0
   46.7033   29.9332    2.5822 P   0  0  1  0  0  5  0  0  0  0  0  0
   46.7213   30.8124    5.1959 P   0  0  2  0  0  5  0  0  0  0  0  0
   49.5430   33.3835   -1.5900 P   0  0  1  0  0  5  0  0  0  0  0  0
   51.9537   33.2038   -2.9943 P   0  0  1  0  0  5  0  0  0  0  0  0
 32  1  1  0
  1 33  1  0
  2 13  2  0
 16  2  1  0
  3  5  1  0
  3 16  1  6
 29  3  1  0
 33  4  1  1
  7  5  1  0
  5 19  1  1
 18  6  1  0
 20  6  2  0
  8  7  1  0
  7 23  1  1
  8 10  1  6
  8 29  1  0
  9 20  1  0
 21  9  2  0
 15 10  1  0
 33 11  1  0
 33 12  2  0
 22 13  1  0
 32 14  2  0
 34 15  1  0
 16 21  1  0
 18 17  1  0
 22 18  2  0
 21 22  1  0
 23 32  1  0
 35 24  1  1
 35 25  1  0
 35 26  2  0
 34 27  2  0
 34 28  1  6
 32 30  1  1
 31 34  1  0
 31 35  1  0
M  END
$$$$
