
     RDKit          3D

 35 37  0  0  0  0  0  0  0  0999 V2000
   90.3267   47.8640  -33.7972 O   0  0  0  0  0  0  0  0  0  0  0  0
   85.1070   51.1110  -39.1604 C   0  0  0  0  0  0  0  0  0  0  0  0
   87.1185   50.0468  -38.0690 C   0  0  2  0  0  0  0  0  0  0  0  0
   88.8087   48.0488  -31.5368 O   0  0  0  0  0  0  0  0  0  0  0  0
   87.7791   50.5819  -36.8278 C   0  0  1  0  0  0  0  0  0  0  0  0
   87.6725   54.6026  -40.2961 N   0  0  0  0  0  0  0  0  0  0  0  0
   87.6522   49.4617  -35.8879 C   0  0  1  0  0  0  0  0  0  0  0  0
   86.3003   48.9118  -36.3236 C   0  0  1  0  0  0  0  0  0  0  0  0
   88.2218   52.6867  -39.1507 N   0  0  0  0  0  0  0  0  0  0  0  0
   85.1770   49.6578  -35.6349 C   0  0  0  0  0  0  0  0  0  0  0  0
   88.7630   45.7254  -33.0884 O   0  0  0  0  0  0  0  0  0  0  0  0
   87.6713   47.9390  -33.8519 O   0  0  0  0  0  0  0  0  0  0  0  0
   84.8799   52.2622  -39.8212 N   0  0  0  0  0  0  0  0  0  0  0  0
   90.9029   47.7719  -36.2767 O   0  0  0  0  0  0  0  0  0  0  0  0
   84.3263   48.7212  -35.0549 O   0  0  0  0  0  0  0  0  0  0  0  0
   86.3827   51.0524  -38.7894 N   0  0  0  0  0  0  0  0  0  0  0  0
   85.4760   54.9925  -41.0854 N   0  0  0  0  0  0  0  0  0  0  0  0
   86.4033   54.1784  -40.4136 C   0  0  0  0  0  0  0  0  0  0  0  0
   89.0389   51.0819  -37.0360 O   0  0  0  0  0  0  0  0  0  0  0  0
   88.6023   53.8677  -39.6648 C   0  0  0  0  0  0  0  0  0  0  0  0
   86.9701   52.1994  -39.2307 C   0  0  0  0  0  0  0  0  0  0  0  0
   86.0243   52.9640  -39.8816 C   0  0  0  0  0  0  0  0  0  0  0  0
   88.5065   48.4634  -35.8450 O   0  0  0  0  0  0  0  0  0  0  0  0
   82.0866   44.4704  -35.0382 O   0  0  0  0  0  0  0  0  0  0  0  0
   81.2988   46.8253  -33.8974 O   0  0  0  0  0  0  0  0  0  0  0  0
   83.8079   46.1509  -33.9964 O   0  0  0  0  0  0  0  0  0  0  0  0
   81.7121   49.0798  -35.3702 O   0  0  0  0  0  0  0  0  0  0  0  0
   83.2454   49.1997  -37.5091 O   0  0  0  0  0  0  0  0  0  0  0  0
   86.2749   49.0310  -37.6915 O   0  0  0  0  0  0  0  0  0  0  0  0
   90.6930   50.1125  -35.2930 O   0  0  0  0  0  0  0  0  0  0  0  0
   82.6899   46.8302  -36.2761 O   0  0  0  0  0  0  0  0  0  0  0  0
   90.0240   48.5394  -35.2988 P   0  0  1  0  0  5  0  0  0  0  0  0
   88.8759   47.4113  -33.1001 P   0  0  2  0  0  5  0  0  0  0  0  0
   82.9604   48.4742  -35.9892 P   0  0  1  0  0  5  0  0  0  0  0  0
   82.5208   46.0665  -34.7826 P   0  0  1  0  0  5  0  0  0  0  0  0
 32  1  1  0
  1 33  1  0
  2 13  2  0
 16  2  1  0
  3  5  1  0
  3 16  1  1
 29  3  1  0
 33  4  1  1
  7  5  1  0
  5 19  1  6
 18  6  1  0
 20  6  2  0
  8  7  1  0
  7 23  1  6
 10  8  1  0
  8 29  1  6
  9 20  1  0
 21  9  2  0
 10 15  1  6
 33 11  1  0
 33 12  2  0
 22 13  1  0
 32 14  2  0
 34 15  1  0
 16 21  1  0
 18 17  1  0
 22 18  2  0
 21 22  1  0
 23 32  1  0
 35 24  1  6
 35 25  1  0
 35 26  2  0
 34 27  2  0
 34 28  1  6
 32 30  1  1
 31 34  1  0
 31 35  1  0
M  END
$$$$
