
     RDKit          3D

 35 37  0  0  0  0  0  0  0  0999 V2000
   47.2040   30.6168   -2.6503 O   0  0  0  0  0  0  0  0  0  0  0  0
   44.2777   26.6256    0.8830 C   0  0  0  0  0  0  0  0  0  0  0  0
   46.6877   26.4365    0.2538 C   0  0  2  0  0  0  0  0  0  0  0  0
   49.3808   28.9148   -2.7260 O   0  0  0  0  0  0  0  0  0  0  0  0
   46.9830   27.5670   -0.6699 C   0  0  1  0  0  0  0  0  0  0  0  0
   43.1544   23.1686   -1.6793 N   0  0  0  0  0  0  0  0  0  0  0  0
   47.3150   28.6738    0.3108 C   0  0  1  0  0  0  0  0  0  0  0  0
   48.0039   27.8419    1.3825 C   0  0  1  0  0  0  0  0  0  0  0  0
   45.2797   24.1284   -1.3268 N   0  0  0  0  0  0  0  0  0  0  0  0
   48.1708   28.5930    2.6640 C   0  0  0  0  0  0  0  0  0  0  0  0
   49.7624   31.6488   -2.4323 O   0  0  0  0  0  0  0  0  0  0  0  0
   48.9185   30.5920   -4.6576 O   0  0  0  0  0  0  0  0  0  0  0  0
   43.1141   25.9859    0.5980 N   0  0  0  0  0  0  0  0  0  0  0  0
   45.7341   30.7216   -0.4763 O   0  0  0  0  0  0  0  0  0  0  0  0
   47.0837   28.3017    3.4808 O   0  0  0  0  0  0  0  0  0  0  0  0
   45.2988   26.0542    0.2207 N   0  0  0  0  0  0  0  0  0  0  0  0
   41.1696   23.9696   -0.6413 N   0  0  0  0  0  0  0  0  0  0  0  0
   42.5720   24.0528   -0.8518 C   0  0  0  0  0  0  0  0  0  0  0  0
   48.1190   27.3318   -1.4389 O   0  0  0  0  0  0  0  0  0  0  0  0
   44.4926   23.2081   -1.9124 C   0  0  0  0  0  0  0  0  0  0  0  0
   44.7560   25.0435   -0.4861 C   0  0  0  0  0  0  0  0  0  0  0  0
   43.3902   24.9906   -0.2584 C   0  0  0  0  0  0  0  0  0  0  0  0
   48.1419   29.6341   -0.2243 O   0  0  0  0  0  0  0  0  0  0  0  0
   49.6770   32.4165    3.4973 O   0  0  0  0  0  0  0  0  0  0  0  0
   47.1388   33.3539    3.8500 O   0  0  0  0  0  0  0  0  0  0  0  0
   47.7533   31.5616    1.9994 O   0  0  0  0  0  0  0  0  0  0  0  0
   45.7169   30.4349    2.8744 O   0  0  0  0  0  0  0  0  0  0  0  0
   45.2877   29.5152    5.2433 O   0  0  0  0  0  0  0  0  0  0  0  0
   47.0708   26.7952    1.5295 O   0  0  0  0  0  0  0  0  0  0  0  0
   47.7819   32.3535   -0.6361 O   0  0  0  0  0  0  0  0  0  0  0  0
   47.6977   30.7429    4.5155 O   0  0  0  0  0  0  0  0  0  0  0  0
   47.1574   30.8035   -0.9694 P   0  0  1  0  0  5  0  0  0  0  0  0
   48.8110   30.4646   -3.1501 P   0  0  2  0  0  5  0  0  0  0  0  0
   46.4286   29.7725    4.0315 P   0  0  1  0  0  5  0  0  0  0  0  0
   48.0423   31.9732    3.4240 P   0  0  1  0  0  5  0  0  0  0  0  0
 32  1  1  0
  1 33  1  0
  2 13  2  0
 16  2  1  0
  3  5  1  0
  3 16  1  1
 29  3  1  0
 33  4  1  1
  7  5  1  0
  5 19  1  6
 18  6  1  0
 20  6  2  0
  8  7  1  0
  7 23  1  6
  8 10  1  1
  8 29  1  0
  9 20  1  0
 21  9  2  0
 15 10  1  0
 33 11  1  0
 33 12  2  0
 22 13  1  0
 32 14  2  0
 34 15  1  0
 16 21  1  0
 18 17  1  0
 22 18  2  0
 21 22  1  0
 23 32  1  0
 35 24  1  6
 35 25  1  0
 35 26  2  0
 34 27  2  0
 34 28  1  1
 32 30  1  6
 31 34  1  0
 31 35  1  0
M  END
$$$$
