
     RDKit          3D

 35 37  0  0  0  0  0  0  0  0999 V2000
   63.5531   16.2068  -44.6735 O   0  0  0  0  0  0  0  0  0  0  0  0
   66.2266   21.4980  -43.6102 C   0  0  0  0  0  0  0  0  0  0  0  0
   66.2116   19.0925  -42.9369 C   0  0  2  0  0  0  0  0  0  0  0  0
   61.7527   15.1628  -42.8542 O   0  0  0  0  0  0  0  0  0  0  0  0
   65.3913   18.2465  -43.8478 C   0  0  1  0  0  0  0  0  0  0  0  0
   62.8639   22.4702  -40.8672 N   0  0  0  0  0  0  0  0  0  0  0  0
   66.3887   17.9386  -44.9467 C   0  0  1  0  0  0  0  0  0  0  0  0
   67.6509   17.8464  -44.1019 C   0  0  1  0  0  0  0  0  0  0  0  0
   63.9214   20.3963  -41.2448 N   0  0  0  0  0  0  0  0  0  0  0  0
   68.8932   17.8739  -44.9327 C   0  0  0  0  0  0  0  0  0  0  0  0
   62.2215   17.8979  -42.9344 O   0  0  0  0  0  0  0  0  0  0  0  0
   64.0023   16.2049  -42.0721 O   0  0  0  0  0  0  0  0  0  0  0  0
   65.5391   22.6287  -43.3051 N   0  0  0  0  0  0  0  0  0  0  0  0
   65.3745   14.3251  -44.8721 O   0  0  0  0  0  0  0  0  0  0  0  0
   69.5506   19.0746  -44.6882 O   0  0  0  0  0  0  0  0  0  0  0  0
   65.7533   20.4582  -42.9013 N   0  0  0  0  0  0  0  0  0  0  0  0
   63.4897   24.4784  -41.9782 N   0  0  0  0  0  0  0  0  0  0  0  0
   63.6646   23.0867  -41.7530 C   0  0  0  0  0  0  0  0  0  0  0  0
   65.0301   17.0390  -43.2574 O   0  0  0  0  0  0  0  0  0  0  0  0
   62.9928   21.1406  -40.6179 C   0  0  0  0  0  0  0  0  0  0  0  0
   64.7554   20.9557  -42.1447 C   0  0  0  0  0  0  0  0  0  0  0  0
   64.6118   22.3122  -42.3883 C   0  0  0  0  0  0  0  0  0  0  0  0
   66.1109   16.7658  -45.6097 O   0  0  0  0  0  0  0  0  0  0  0  0
   73.1622   18.3855  -47.3585 O   0  0  0  0  0  0  0  0  0  0  0  0
   72.0110   20.8053  -47.8727 O   0  0  0  0  0  0  0  0  0  0  0  0
   71.7674   18.7340  -49.5051 O   0  0  0  0  0  0  0  0  0  0  0  0
   68.5247   20.3773  -46.6973 O   0  0  0  0  0  0  0  0  0  0  0  0
   70.8909   21.1362  -46.0139 O   0  0  0  0  0  0  0  0  0  0  0  0
   67.5301   19.0244  -43.3366 O   0  0  0  0  0  0  0  0  0  0  0  0
   65.6614   16.0938  -42.9562 O   0  0  0  0  0  0  0  0  0  0  0  0
   70.3943   18.6692  -47.2437 O   0  0  0  0  0  0  0  0  0  0  0  0
   65.1893   15.7903  -44.5651 P   0  0  1  0  0  5  0  0  0  0  0  0
   62.9174   16.3797  -43.1174 P   0  0  2  0  0  5  0  0  0  0  0  0
   69.8379   19.8330  -46.1842 P   0  0  1  0  0  5  0  0  0  0  0  0
   71.7993   19.1233  -48.0457 P   0  0  1  0  0  5  0  0  0  0  0  0
 32  1  1  0
  1 33  1  0
  2 13  2  0
 16  2  1  0
  3  5  1  0
  3 16  1  6
 29  3  1  0
 33  4  1  1
  7  5  1  0
  5 19  1  1
 18  6  1  0
 20  6  2  0
  8  7  1  0
  7 23  1  1
  8 10  1  6
  8 29  1  0
  9 20  1  0
 21  9  2  0
 15 10  1  0
 33 11  1  0
 33 12  2  0
 22 13  1  0
 32 14  2  0
 34 15  1  0
 16 21  1  0
 18 17  1  0
 22 18  2  0
 21 22  1  0
 23 32  1  0
 35 24  1  1
 35 25  1  0
 35 26  2  0
 34 27  2  0
 34 28  1  1
 32 30  1  1
 31 34  1  0
 31 35  1  0
M  END
$$$$
