
     RDKit          3D

 35 37  0  0  0  0  0  0  0  0999 V2000
   89.2949   46.9395  -34.5209 O   0  0  0  0  0  0  0  0  0  0  0  0
   85.7488   51.9154  -39.4592 C   0  0  0  0  0  0  0  0  0  0  0  0
   87.1328   51.2814  -37.4462 C   0  0  2  0  0  0  0  0  0  0  0  0
   91.5757   47.8405  -33.3232 O   0  0  0  0  0  0  0  0  0  0  0  0
   86.7261   51.1160  -36.0072 C   0  0  1  0  0  0  0  0  0  0  0  0
   84.0496   55.3317  -37.1130 N   0  0  0  0  0  0  0  0  0  0  0  0
   87.1784   49.7538  -35.7001 C   0  0  1  0  0  0  0  0  0  0  0  0
   86.9290   49.0896  -37.0479 C   0  0  1  0  0  0  0  0  0  0  0  0
   85.5887   53.7424  -36.4891 N   0  0  0  0  0  0  0  0  0  0  0  0
   85.4924   48.6228  -37.1518 C   0  0  0  0  0  0  0  0  0  0  0  0
   89.6047   46.5455  -31.8246 O   0  0  0  0  0  0  0  0  0  0  0  0
   89.3043   48.9331  -32.7644 O   0  0  0  0  0  0  0  0  0  0  0  0
   84.8559   52.8854  -39.7335 N   0  0  0  0  0  0  0  0  0  0  0  0
   88.5417   47.4897  -36.8912 O   0  0  0  0  0  0  0  0  0  0  0  0
   85.4399   47.5844  -38.0771 O   0  0  0  0  0  0  0  0  0  0  0  0
   86.1862   52.0503  -38.2106 N   0  0  0  0  0  0  0  0  0  0  0  0
   83.0900   55.3513  -39.2759 N   0  0  0  0  0  0  0  0  0  0  0  0
   83.9592   54.7772  -38.3331 C   0  0  0  0  0  0  0  0  0  0  0  0
   87.1656   52.1199  -35.1829 O   0  0  0  0  0  0  0  0  0  0  0  0
   84.8630   54.8268  -36.1714 C   0  0  0  0  0  0  0  0  0  0  0  0
   85.5488   53.1354  -37.6893 C   0  0  0  0  0  0  0  0  0  0  0  0
   84.7093   53.6637  -38.6478 C   0  0  0  0  0  0  0  0  0  0  0  0
   88.4077   49.4752  -35.3267 O   0  0  0  0  0  0  0  0  0  0  0  0
   84.6525   42.8022  -36.5251 O   0  0  0  0  0  0  0  0  0  0  0  0
   82.5663   44.5662  -36.4605 O   0  0  0  0  0  0  0  0  0  0  0  0
   84.0138   44.1158  -34.3482 O   0  0  0  0  0  0  0  0  0  0  0  0
   83.0838   46.8346  -37.1033 O   0  0  0  0  0  0  0  0  0  0  0  0
   84.2626   45.2523  -38.8487 O   0  0  0  0  0  0  0  0  0  0  0  0
   87.2664   50.0283  -37.9919 O   0  0  0  0  0  0  0  0  0  0  0  0
   90.8252   48.4075  -36.2328 O   0  0  0  0  0  0  0  0  0  0  0  0
   85.1614   45.4757  -36.2826 O   0  0  0  0  0  0  0  0  0  0  0  0
   89.2266   48.1327  -35.6931 P   0  0  1  0  0  5  0  0  0  0  0  0
   89.9175   47.5926  -33.1132 P   0  0  2  0  0  5  0  0  0  0  0  0
   84.4508   46.3430  -37.5478 P   0  0  1  0  0  5  0  0  0  0  0  0
   84.1062   44.2336  -35.8513 P   0  0  1  0  0  5  0  0  0  0  0  0
 32  1  1  0
  1 33  1  0
  2 13  2  0
 16  2  1  0
  3  5  1  0
  3 16  1  6
 29  3  1  0
 33  4  1  6
  7  5  1  0
  5 19  1  1
 18  6  1  0
 20  6  2  0
  8  7  1  0
  7 23  1  6
 10  8  1  0
  8 29  1  6
  9 20  1  0
 21  9  2  0
 10 15  1  6
 33 11  1  0
 33 12  2  0
 22 13  1  0
 32 14  2  0
 34 15  1  0
 16 21  1  0
 18 17  1  0
 22 18  2  0
 21 22  1  0
 23 32  1  0
 35 24  1  6
 35 25  1  0
 35 26  2  0
 34 27  2  0
 34 28  1  6
 32 30  1  6
 31 34  1  0
 31 35  1  0
M  END
$$$$
