
     RDKit          3D

 35 37  0  0  0  0  0  0  0  0999 V2000
   65.8003   18.6802  -42.7479 O   0  0  0  0  0  0  0  0  0  0  0  0
   67.9388   22.7408  -47.2481 C   0  0  0  0  0  0  0  0  0  0  0  0
   67.6858   21.8224  -44.9388 C   0  0  2  0  0  0  0  0  0  0  0  0
   67.5415   16.5423  -42.5518 O   0  0  0  0  0  0  0  0  0  0  0  0
   66.9444   20.5317  -44.8865 C   0  0  1  0  0  0  0  0  0  0  0  0
   64.2216   25.1552  -46.8862 N   0  0  0  0  0  0  0  0  0  0  0  0
   68.0559   19.5385  -45.1613 C   0  0  1  0  0  0  0  0  0  0  0  0
   69.1933   20.2522  -44.4457 C   0  0  1  0  0  0  0  0  0  0  0  0
   65.2172   23.7141  -45.3068 N   0  0  0  0  0  0  0  0  0  0  0  0
   70.5311   19.6904  -44.8049 C   0  0  0  0  0  0  0  0  0  0  0  0
   65.6938   17.0209  -40.5359 O   0  0  0  0  0  0  0  0  0  0  0  0
   67.7344   18.5836  -40.9538 O   0  0  0  0  0  0  0  0  0  0  0  0
   67.2702   23.5937  -48.0665 N   0  0  0  0  0  0  0  0  0  0  0  0
   65.3426   19.0253  -45.3110 O   0  0  0  0  0  0  0  0  0  0  0  0
   70.8953   20.2006  -46.0462 O   0  0  0  0  0  0  0  0  0  0  0  0
   67.3002   22.6269  -46.0704 N   0  0  0  0  0  0  0  0  0  0  0  0
   65.1281   25.5499  -49.0497 N   0  0  0  0  0  0  0  0  0  0  0  0
   65.1899   24.9073  -47.7844 C   0  0  0  0  0  0  0  0  0  0  0  0
   66.4470   20.2647  -43.6143 O   0  0  0  0  0  0  0  0  0  0  0  0
   64.2374   24.5643  -45.6625 C   0  0  0  0  0  0  0  0  0  0  0  0
   66.2176   23.4240  -46.1631 C   0  0  0  0  0  0  0  0  0  0  0  0
   66.1879   24.0341  -47.4069 C   0  0  0  0  0  0  0  0  0  0  0  0
   67.8028   18.2921  -44.6375 O   0  0  0  0  0  0  0  0  0  0  0  0
   74.3041   19.1077  -47.1640 O   0  0  0  0  0  0  0  0  0  0  0  0
   73.5257   21.6313  -47.8500 O   0  0  0  0  0  0  0  0  0  0  0  0
   74.2455   19.8228  -49.6460 O   0  0  0  0  0  0  0  0  0  0  0  0
   72.3330   18.0558  -46.3915 O   0  0  0  0  0  0  0  0  0  0  0  0
   69.9271   17.9007  -47.3022 O   0  0  0  0  0  0  0  0  0  0  0  0
   69.0389   21.5554  -44.9611 O   0  0  0  0  0  0  0  0  0  0  0  0
   65.6404   16.5645  -44.4523 O   0  0  0  0  0  0  0  0  0  0  0  0
   71.8870   19.5140  -48.4859 O   0  0  0  0  0  0  0  0  0  0  0  0
   66.1326   18.1915  -44.3332 P   0  0  1  0  0  5  0  0  0  0  0  0
   66.7015   17.7376  -41.6732 P   0  0  2  0  0  5  0  0  0  0  0  0
   71.2689   18.8906  -47.0661 P   0  0  1  0  0  5  0  0  0  0  0  0
   73.4890   20.0028  -48.3507 P   0  0  1  0  0  5  0  0  0  0  0  0
 32  1  1  0
  1 33  1  0
  2 13  2  0
 16  2  1  0
  3  5  1  0
  3 16  1  6
 29  3  1  0
 33  4  1  6
  7  5  1  0
  5 19  1  1
 18  6  1  0
 20  6  2  0
  8  7  1  0
  7 23  1  1
  8 10  1  6
  8 29  1  0
  9 20  1  0
 21  9  2  0
 15 10  1  0
 33 11  1  0
 33 12  2  0
 22 13  1  0
 32 14  2  0
 34 15  1  0
 16 21  1  0
 18 17  1  0
 22 18  2  0
 21 22  1  0
 23 32  1  0
 35 24  1  1
 35 25  1  0
 35 26  2  0
 34 27  2  0
 34 28  1  6
 32 30  1  1
 31 34  1  0
 31 35  1  0
M  END
$$$$
