
     RDKit          3D

 35 37  0  0  0  0  0  0  0  0999 V2000
   82.4360   51.2485  -34.6285 O   0  0  0  0  0  0  0  0  0  0  0  0
   88.1086   49.4679  -38.8643 C   0  0  0  0  0  0  0  0  0  0  0  0
   86.4572   50.8398  -37.5374 C   0  0  2  0  0  0  0  0  0  0  0  0
   81.4024   52.0547  -37.0222 O   0  0  0  0  0  0  0  0  0  0  0  0
   85.6036   49.8866  -36.7459 C   0  0  1  0  0  0  0  0  0  0  0  0
   85.7801   50.4032  -42.5746 N   0  0  0  0  0  0  0  0  0  0  0  0
   85.8751   50.2871  -35.3602 C   0  0  1  0  0  0  0  0  0  0  0  0
   87.3407   50.6811  -35.4884 C   0  0  1  0  0  0  0  0  0  0  0  0
   85.4035   51.0507  -40.4014 N   0  0  0  0  0  0  0  0  0  0  0  0
   88.2317   49.4654  -35.3447 C   0  0  0  0  0  0  0  0  0  0  0  0
   84.1211   52.3864  -36.4688 O   0  0  0  0  0  0  0  0  0  0  0  0
   82.2805   53.8041  -35.3389 O   0  0  0  0  0  0  0  0  0  0  0  0
   88.2478   49.1400  -40.1629 N   0  0  0  0  0  0  0  0  0  0  0  0
   83.9308   49.7249  -33.2384 O   0  0  0  0  0  0  0  0  0  0  0  0
   87.4197   48.3358  -35.3004 O   0  0  0  0  0  0  0  0  0  0  0  0
   87.0329   50.2344  -38.7094 N   0  0  0  0  0  0  0  0  0  0  0  0
   87.6188   49.0350  -43.1632 N   0  0  0  0  0  0  0  0  0  0  0  0
   86.8723   49.7217  -42.1911 C   0  0  0  0  0  0  0  0  0  0  0  0
   84.2905   49.8529  -37.1397 O   0  0  0  0  0  0  0  0  0  0  0  0
   85.0278   51.0781  -41.6904 C   0  0  0  0  0  0  0  0  0  0  0  0
   86.4839   50.3902  -39.9463 C   0  0  0  0  0  0  0  0  0  0  0  0
   87.2483   49.7009  -40.8645 C   0  0  0  0  0  0  0  0  0  0  0  0
   85.2375   51.2682  -34.7609 O   0  0  0  0  0  0  0  0  0  0  0  0
   91.8442   48.6851  -34.3012 O   0  0  0  0  0  0  0  0  0  0  0  0
   89.9650   47.9883  -36.1588 O   0  0  0  0  0  0  0  0  0  0  0  0
   91.1579   46.1884  -34.7105 O   0  0  0  0  0  0  0  0  0  0  0  0
   86.9476   47.0005  -33.0518 O   0  0  0  0  0  0  0  0  0  0  0  0
   88.2639   45.7668  -34.9716 O   0  0  0  0  0  0  0  0  0  0  0  0
   87.4533   51.2976  -36.7105 O   0  0  0  0  0  0  0  0  0  0  0  0
   83.8670   52.1611  -32.4961 O   0  0  0  0  0  0  0  0  0  0  0  0
   89.4248   47.7261  -33.4694 O   0  0  0  0  0  0  0  0  0  0  0  0
   83.9126   51.1189  -33.8503 P   0  0  1  0  0  5  0  0  0  0  0  0
   82.5547   52.3995  -35.8355 P   0  0  2  0  0  5  0  0  0  0  0  0
   87.9604   47.2382  -34.1591 P   0  0  1  0  0  5  0  0  0  0  0  0
   90.6201   47.5988  -34.6515 P   0  0  1  0  0  5  0  0  0  0  0  0
 32  1  1  0
  1 33  1  0
  2 13  2  0
 16  2  1  0
  3  5  1  0
  3 16  1  6
 29  3  1  0
 33  4  1  6
  7  5  1  0
  5 19  1  6
 18  6  1  0
 20  6  2  0
  8  7  1  0
  7 23  1  6
 10  8  1  0
  8 29  1  6
  9 20  1  0
 21  9  2  0
 10 15  1  6
 33 11  1  0
 33 12  2  0
 22 13  1  0
 32 14  2  0
 34 15  1  0
 16 21  1  0
 18 17  1  0
 22 18  2  0
 21 22  1  0
 23 32  1  0
 35 24  1  1
 35 25  1  0
 35 26  2  0
 34 27  2  0
 34 28  1  6
 32 30  1  1
 31 34  1  0
 31 35  1  0
M  END
$$$$
