
     RDKit          3D

 35 37  0  0  0  0  0  0  0  0999 V2000
   65.9511   29.4769  -50.9475 O   0  0  0  0  0  0  0  0  0  0  0  0
   71.5116   27.4731  -54.4042 C   0  0  0  0  0  0  0  0  0  0  0  0
   69.3284   26.2903  -54.6768 C   0  0  2  0  0  0  0  0  0  0  0  0
   65.1878   31.8674  -52.1067 O   0  0  0  0  0  0  0  0  0  0  0  0
   68.4654   26.3028  -53.4630 C   0  0  1  0  0  0  0  0  0  0  0  0
   73.5568   23.7607  -53.0579 N   0  0  0  0  0  0  0  0  0  0  0  0
   67.7595   27.6356  -53.6132 C   0  0  1  0  0  0  0  0  0  0  0  0
   67.6290   27.6649  -55.1289 C   0  0  1  0  0  0  0  0  0  0  0  0
   71.3049   24.0725  -53.6857 N   0  0  0  0  0  0  0  0  0  0  0  0
   67.2596   29.0199  -55.6406 C   0  0  0  0  0  0  0  0  0  0  0  0
   66.9627   30.1872  -53.4233 O   0  0  0  0  0  0  0  0  0  0  0  0
   67.6210   31.4959  -51.2704 O   0  0  0  0  0  0  0  0  0  0  0  0
   72.7776   27.1651  -54.0212 N   0  0  0  0  0  0  0  0  0  0  0  0
   66.4460   26.9510  -50.4253 O   0  0  0  0  0  0  0  0  0  0  0  0
   67.1090   28.9349  -57.0204 O   0  0  0  0  0  0  0  0  0  0  0  0
   70.7290   26.3812  -54.3508 N   0  0  0  0  0  0  0  0  0  0  0  0
   75.1678   25.5109  -53.0553 N   0  0  0  0  0  0  0  0  0  0  0  0
   73.8413   25.0550  -53.2804 C   0  0  0  0  0  0  0  0  0  0  0  0
   67.4946   25.3062  -53.5004 O   0  0  0  0  0  0  0  0  0  0  0  0
   72.3027   23.2776  -53.2589 C   0  0  0  0  0  0  0  0  0  0  0  0
   71.5260   25.3807  -53.9271 C   0  0  0  0  0  0  0  0  0  0  0  0
   72.8097   25.8585  -53.7175 C   0  0  0  0  0  0  0  0  0  0  0  0
   66.5399   27.6709  -52.9780 O   0  0  0  0  0  0  0  0  0  0  0  0
   64.7064   30.0209  -58.1828 O   0  0  0  0  0  0  0  0  0  0  0  0
   66.2719   30.3902  -60.3870 O   0  0  0  0  0  0  0  0  0  0  0  0
   64.9203   32.3640  -59.2502 O   0  0  0  0  0  0  0  0  0  0  0  0
   69.1453   30.5375  -56.7532 O   0  0  0  0  0  0  0  0  0  0  0  0
   68.8114   29.6039  -59.1320 O   0  0  0  0  0  0  0  0  0  0  0  0
   68.9456   27.3265  -55.5031 O   0  0  0  0  0  0  0  0  0  0  0  0
   68.4676   28.4595  -51.1459 O   0  0  0  0  0  0  0  0  0  0  0  0
   67.0716   31.4780  -57.9891 O   0  0  0  0  0  0  0  0  0  0  0  0
   66.8188   28.0817  -51.3515 P   0  0  1  0  0  5  0  0  0  0  0  0
   66.4680   30.7569  -51.9221 P   0  0  2  0  0  5  0  0  0  0  0  0
   68.0577   30.1560  -57.7308 P   0  0  1  0  0  5  0  0  0  0  0  0
   65.7364   31.1291  -58.9477 P   0  0  1  0  0  5  0  0  0  0  0  0
 32  1  1  0
  1 33  1  0
  2 13  2  0
 16  2  1  0
  3  5  1  0
  3 16  1  1
 29  3  1  0
 33  4  1  6
  7  5  1  0
  5 19  1  6
 18  6  1  0
 20  6  2  0
  8  7  1  0
  7 23  1  1
  8 10  1  6
  8 29  1  0
  9 20  1  0
 21  9  2  0
 15 10  1  0
 33 11  1  0
 33 12  2  0
 22 13  1  0
 32 14  2  0
 34 15  1  0
 16 21  1  0
 18 17  1  0
 22 18  2  0
 21 22  1  0
 23 32  1  0
 35 24  1  1
 35 25  1  0
 35 26  2  0
 34 27  2  0
 34 28  1  6
 32 30  1  6
 31 34  1  0
 31 35  1  0
M  END
$$$$
