
     RDKit          3D

 35 37  0  0  0  0  0  0  0  0999 V2000
   45.7275   20.0720  -10.4385 O   0  0  0  0  0  0  0  0  0  0  0  0
   46.6763   24.3348   -5.6661 C   0  0  0  0  0  0  0  0  0  0  0  0
   47.2196   22.1963   -6.8915 C   0  0  2  0  0  0  0  0  0  0  0  0
   47.7385   19.2617  -12.0959 O   0  0  0  0  0  0  0  0  0  0  0  0
   46.8120   21.0524   -6.0033 C   0  0  1  0  0  0  0  0  0  0  0  0
   51.0590   24.9645   -4.9893 N   0  0  0  0  0  0  0  0  0  0  0  0
   45.8090   20.3554   -6.8172 C   0  0  1  0  0  0  0  0  0  0  0  0
   45.1726   21.5481   -7.5188 C   0  0  1  0  0  0  0  0  0  0  0  0
   49.9706   23.2552   -6.0745 N   0  0  0  0  0  0  0  0  0  0  0  0
   44.0911   22.1584   -6.6525 C   0  0  0  0  0  0  0  0  0  0  0  0
   45.0967   19.3334  -13.0032 O   0  0  0  0  0  0  0  0  0  0  0  0
   45.9484   17.5733  -11.3147 O   0  0  0  0  0  0  0  0  0  0  0  0
   47.3996   25.2902   -5.0516 N   0  0  0  0  0  0  0  0  0  0  0  0
   45.5517   17.7205   -9.4751 O   0  0  0  0  0  0  0  0  0  0  0  0
   44.5419   22.1632   -5.3357 O   0  0  0  0  0  0  0  0  0  0  0  0
   47.4899   23.4052   -6.1586 N   0  0  0  0  0  0  0  0  0  0  0  0
   49.8782   26.7651   -4.0080 N   0  0  0  0  0  0  0  0  0  0  0  0
   49.8825   25.5553   -4.7222 C   0  0  0  0  0  0  0  0  0  0  0  0
   47.8628   20.3065   -5.5346 O   0  0  0  0  0  0  0  0  0  0  0  0
   51.1252   23.8077   -5.6679 C   0  0  0  0  0  0  0  0  0  0  0  0
   48.7579   23.7901   -5.8430 C   0  0  0  0  0  0  0  0  0  0  0  0
   48.7034   24.9785   -5.1449 C   0  0  0  0  0  0  0  0  0  0  0  0
   46.1228   19.4624   -7.7295 O   0  0  0  0  0  0  0  0  0  0  0  0
   42.4603   24.5495   -1.7980 O   0  0  0  0  0  0  0  0  0  0  0  0
   43.5028   26.7853   -2.9737 O   0  0  0  0  0  0  0  0  0  0  0  0
   44.9911   24.7160   -2.4610 O   0  0  0  0  0  0  0  0  0  0  0  0
   42.0118   22.1480   -4.5230 O   0  0  0  0  0  0  0  0  0  0  0  0
   43.8957   22.4225   -2.7021 O   0  0  0  0  0  0  0  0  0  0  0  0
   46.2048   22.4121   -7.7911 O   0  0  0  0  0  0  0  0  0  0  0  0
   43.6059   19.2708   -8.9269 O   0  0  0  0  0  0  0  0  0  0  0  0
   43.2500   24.4483   -4.4117 O   0  0  0  0  0  0  0  0  0  0  0  0
   45.3047   19.1729   -9.0911 P   0  0  1  0  0  5  0  0  0  0  0  0
   46.1148   19.0317  -11.6889 P   0  0  2  0  0  5  0  0  0  0  0  0
   43.3802   22.7669   -4.2937 P   0  0  1  0  0  5  0  0  0  0  0  0
   43.5967   25.1007   -2.8963 P   0  0  1  0  0  5  0  0  0  0  0  0
 32  1  1  0
  1 33  1  0
  2 13  2  0
 16  2  1  0
  3  5  1  0
  3 16  1  1
 29  3  1  0
 33  4  1  6
  7  5  1  0
  5 19  1  6
 18  6  1  0
 20  6  2  0
  8  7  1  0
  7 23  1  6
 10  8  1  0
  8 29  1  1
  9 20  1  0
 21  9  2  0
 10 15  1  6
 33 11  1  0
 33 12  2  0
 22 13  1  0
 32 14  2  0
 34 15  1  0
 16 21  1  0
 18 17  1  0
 22 18  2  0
 21 22  1  0
 23 32  1  0
 35 24  1  1
 35 25  1  0
 35 26  2  0
 34 27  2  0
 34 28  1  1
 32 30  1  1
 31 34  1  0
 31 35  1  0
M  END
$$$$
