
     RDKit          3D

 35 37  0  0  0  0  0  0  0  0999 V2000
   70.5600   29.9381  -58.8667 O   0  0  0  0  0  0  0  0  0  0  0  0
   69.3912   28.0526  -51.5276 C   0  0  0  0  0  0  0  0  0  0  0  0
   70.3666   28.9115  -53.6911 C   0  0  2  0  0  0  0  0  0  0  0  0
   68.9033   27.8269  -59.3630 O   0  0  0  0  0  0  0  0  0  0  0  0
   69.6265   28.5939  -54.9619 C   0  0  1  0  0  0  0  0  0  0  0  0
   71.4336   24.1336  -52.2575 N   0  0  0  0  0  0  0  0  0  0  0  0
   69.2747   29.9251  -55.4701 C   0  0  1  0  0  0  0  0  0  0  0  0
   69.0352   30.6491  -54.1516 C   0  0  1  0  0  0  0  0  0  0  0  0
   71.4323   26.0489  -53.5286 N   0  0  0  0  0  0  0  0  0  0  0  0
   67.6170   30.4231  -53.6721 C   0  0  0  0  0  0  0  0  0  0  0  0
   69.7712   28.3663  -56.7623 O   0  0  0  0  0  0  0  0  0  0  0  0
   71.3303   27.4105  -58.5872 O   0  0  0  0  0  0  0  0  0  0  0  0
   69.4509   26.8894  -50.8518 N   0  0  0  0  0  0  0  0  0  0  0  0
   68.4163   31.0450  -58.0495 O   0  0  0  0  0  0  0  0  0  0  0  0
   66.9087   31.6096  -53.8388 O   0  0  0  0  0  0  0  0  0  0  0  0
   70.1113   27.9600  -52.6418 N   0  0  0  0  0  0  0  0  0  0  0  0
   70.2415   23.9942  -50.2182 N   0  0  0  0  0  0  0  0  0  0  0  0
   70.6378   24.7247  -51.3510 C   0  0  0  0  0  0  0  0  0  0  0  0
   70.3075   27.7613  -55.8124 O   0  0  0  0  0  0  0  0  0  0  0  0
   71.8444   24.7819  -53.3594 C   0  0  0  0  0  0  0  0  0  0  0  0
   70.6361   26.7032  -52.6634 C   0  0  0  0  0  0  0  0  0  0  0  0
   70.2211   26.0261  -51.5356 C   0  0  0  0  0  0  0  0  0  0  0  0
   70.0943   30.6538  -56.1951 O   0  0  0  0  0  0  0  0  0  0  0  0
   64.5177   31.9785  -50.9768 O   0  0  0  0  0  0  0  0  0  0  0  0
   65.9851   34.0682  -50.0034 O   0  0  0  0  0  0  0  0  0  0  0  0
   65.9605   31.7643  -48.7985 O   0  0  0  0  0  0  0  0  0  0  0  0
   68.4694   33.4691  -52.7580 O   0  0  0  0  0  0  0  0  0  0  0  0
   65.8612   33.7442  -52.5098 O   0  0  0  0  0  0  0  0  0  0  0  0
   69.9863   30.1673  -53.2860 O   0  0  0  0  0  0  0  0  0  0  0  0
   70.4475   32.5761  -58.1914 O   0  0  0  0  0  0  0  0  0  0  0  0
   67.2455   31.8713  -51.0888 O   0  0  0  0  0  0  0  0  0  0  0  0
   69.9104   31.0119  -57.7587 P   0  0  1  0  0  5  0  0  0  0  0  0
   70.1792   28.3777  -58.4019 P   0  0  2  0  0  5  0  0  0  0  0  0
   67.1889   32.6718  -52.5768 P   0  0  1  0  0  5  0  0  0  0  0  0
   65.9276   32.3888  -50.1736 P   0  0  1  0  0  5  0  0  0  0  0  0
 32  1  1  0
  1 33  1  0
  2 13  2  0
 16  2  1  0
  3  5  1  0
  3 16  1  1
 29  3  1  0
 33  4  1  6
  7  5  1  0
  5 19  1  6
 18  6  1  0
 20  6  2  0
  8  7  1  0
  7 23  1  1
 10  8  1  0
  8 29  1  1
  9 20  1  0
 21  9  2  0
 10 15  1  6
 33 11  1  0
 33 12  2  0
 22 13  1  0
 32 14  2  0
 34 15  1  0
 16 21  1  0
 18 17  1  0
 22 18  2  0
 21 22  1  0
 23 32  1  0
 35 24  1  6
 35 25  1  0
 35 26  2  0
 34 27  2  0
 34 28  1  1
 32 30  1  1
 31 34  1  0
 31 35  1  0
M  END
$$$$
