
     RDKit          3D

 35 37  0  0  0  0  0  0  0  0999 V2000
   85.1271   46.2551  -32.2653 O   0  0  0  0  0  0  0  0  0  0  0  0
   86.7573   52.1225  -37.4894 C   0  0  0  0  0  0  0  0  0  0  0  0
   85.4838   50.9425  -35.6576 C   0  0  2  0  0  0  0  0  0  0  0  0
   86.9248   48.3026  -32.1110 O   0  0  0  0  0  0  0  0  0  0  0  0
   85.0554   49.6295  -36.2543 C   0  0  1  0  0  0  0  0  0  0  0  0
   83.4766   55.1649  -37.6983 N   0  0  0  0  0  0  0  0  0  0  0  0
   85.6910   48.6499  -35.3651 C   0  0  1  0  0  0  0  0  0  0  0  0
   86.9769   49.3970  -35.0361 C   0  0  1  0  0  0  0  0  0  0  0  0
   83.6840   53.3184  -36.3450 N   0  0  0  0  0  0  0  0  0  0  0  0
   88.0214   49.1517  -36.1045 C   0  0  0  0  0  0  0  0  0  0  0  0
   85.9049   47.1341  -29.7867 O   0  0  0  0  0  0  0  0  0  0  0  0
   84.4920   48.6568  -31.3228 O   0  0  0  0  0  0  0  0  0  0  0  0
   86.5489   53.2228  -38.2373 N   0  0  0  0  0  0  0  0  0  0  0  0
   83.3064   46.5272  -34.0258 O   0  0  0  0  0  0  0  0  0  0  0  0
   87.3636   48.9307  -37.3111 O   0  0  0  0  0  0  0  0  0  0  0  0
   85.7391   51.9521  -36.6512 N   0  0  0  0  0  0  0  0  0  0  0  0
   85.1310   55.7295  -39.2931 N   0  0  0  0  0  0  0  0  0  0  0  0
   84.6544   54.8820  -38.2789 C   0  0  0  0  0  0  0  0  0  0  0  0
   83.7018   49.5157  -36.4417 O   0  0  0  0  0  0  0  0  0  0  0  0
   82.9709   54.3914  -36.7240 C   0  0  0  0  0  0  0  0  0  0  0  0
   84.8692   52.9747  -36.8814 C   0  0  0  0  0  0  0  0  0  0  0  0
   85.3777   53.7774  -37.8813 C   0  0  0  0  0  0  0  0  0  0  0  0
   85.1485   48.2504  -34.2362 O   0  0  0  0  0  0  0  0  0  0  0  0
   85.9321   45.2329  -39.7310 O   0  0  0  0  0  0  0  0  0  0  0  0
   85.6812   47.9489  -39.9000 O   0  0  0  0  0  0  0  0  0  0  0  0
   85.8108   46.7500  -37.5965 O   0  0  0  0  0  0  0  0  0  0  0  0
   88.4612   49.3056  -39.7020 O   0  0  0  0  0  0  0  0  0  0  0  0
   89.9720   48.3074  -37.7886 O   0  0  0  0  0  0  0  0  0  0  0  0
   86.6186   50.7174  -34.9176 O   0  0  0  0  0  0  0  0  0  0  0  0
   85.5031   45.5531  -34.8718 O   0  0  0  0  0  0  0  0  0  0  0  0
   88.0306   46.8234  -39.0019 O   0  0  0  0  0  0  0  0  0  0  0  0
   84.8046   46.7234  -33.8399 P   0  0  1  0  0  5  0  0  0  0  0  0
   85.5750   47.5991  -31.3773 P   0  0  2  0  0  5  0  0  0  0  0  0
   88.4176   48.3881  -38.4919 P   0  0  1  0  0  5  0  0  0  0  0  0
   86.3507   46.6820  -39.0057 P   0  0  1  0  0  5  0  0  0  0  0  0
 32  1  1  0
  1 33  1  0
  2 13  2  0
 16  2  1  0
  3  5  1  0
  3 16  1  6
 29  3  1  0
 33  4  1  6
  7  5  1  0
  5 19  1  1
 18  6  1  0
 20  6  2  0
  8  7  1  0
  7 23  1  1
 10  8  1  0
  8 29  1  6
  9 20  1  0
 21  9  2  0
 10 15  1  6
 33 11  1  0
 33 12  2  0
 22 13  1  0
 32 14  2  0
 34 15  1  0
 16 21  1  0
 18 17  1  0
 22 18  2  0
 21 22  1  0
 23 32  1  0
 35 24  1  6
 35 25  1  0
 35 26  2  0
 34 27  2  0
 34 28  1  1
 32 30  1  6
 31 34  1  0
 31 35  1  0
M  END
$$$$
