
     RDKit          3D

 35 37  0  0  0  0  0  0  0  0999 V2000
   64.6069   30.4862  -57.6110 O   0  0  0  0  0  0  0  0  0  0  0  0
   70.4139   31.1829  -52.5594 C   0  0  0  0  0  0  0  0  0  0  0  0
   67.9775   30.6565  -52.9550 C   0  0  2  0  0  0  0  0  0  0  0  0
   63.9788   33.1343  -57.4079 O   0  0  0  0  0  0  0  0  0  0  0  0
   67.5046   31.6170  -54.0121 C   0  0  1  0  0  0  0  0  0  0  0  0
   69.3263   32.7937  -48.5239 N   0  0  0  0  0  0  0  0  0  0  0  0
   67.0692   30.7202  -55.0894 C   0  0  1  0  0  0  0  0  0  0  0  0
   68.0937   29.6050  -54.9261 C   0  0  1  0  0  0  0  0  0  0  0  0
   67.9839   31.8851  -50.1537 N   0  0  0  0  0  0  0  0  0  0  0  0
   69.3659   29.9392  -55.6759 C   0  0  0  0  0  0  0  0  0  0  0  0
   63.9536   31.8585  -59.8938 O   0  0  0  0  0  0  0  0  0  0  0  0
   66.1363   32.4077  -58.6255 O   0  0  0  0  0  0  0  0  0  0  0  0
   71.1185   31.7275  -51.5493 N   0  0  0  0  0  0  0  0  0  0  0  0
   63.3655   30.0204  -55.4361 O   0  0  0  0  0  0  0  0  0  0  0  0
   69.0967   29.8678  -57.0396 O   0  0  0  0  0  0  0  0  0  0  0  0
   69.1254   31.1392  -52.2332 N   0  0  0  0  0  0  0  0  0  0  0  0
   71.6652   33.0050  -48.8147 N   0  0  0  0  0  0  0  0  0  0  0  0
   70.4072   32.6101  -49.3000 C   0  0  0  0  0  0  0  0  0  0  0  0
   66.5953   32.5398  -53.5628 O   0  0  0  0  0  0  0  0  0  0  0  0
   68.0988   32.4361  -48.9343 C   0  0  0  0  0  0  0  0  0  0  0  0
   69.0212   31.6716  -50.9838 C   0  0  0  0  0  0  0  0  0  0  0  0
   70.2768   32.0433  -50.5504 C   0  0  0  0  0  0  0  0  0  0  0  0
   65.8731   30.1760  -55.1278 O   0  0  0  0  0  0  0  0  0  0  0  0
   67.7337   30.2264  -60.7494 O   0  0  0  0  0  0  0  0  0  0  0  0
   69.3842   32.3966  -60.5655 O   0  0  0  0  0  0  0  0  0  0  0  0
   68.2922   31.3532  -58.4492 O   0  0  0  0  0  0  0  0  0  0  0  0
   71.4988   30.8909  -57.5347 O   0  0  0  0  0  0  0  0  0  0  0  0
   71.2096   28.2772  -57.6925 O   0  0  0  0  0  0  0  0  0  0  0  0
   68.2794   29.4675  -53.5723 O   0  0  0  0  0  0  0  0  0  0  0  0
   64.2652   32.3901  -55.6912 O   0  0  0  0  0  0  0  0  0  0  0  0
   70.1947   29.9480  -59.5956 O   0  0  0  0  0  0  0  0  0  0  0  0
   64.6049   30.7358  -55.9556 P   0  0  1  0  0  5  0  0  0  0  0  0
   64.7077   31.9646  -58.3855 P   0  0  2  0  0  5  0  0  0  0  0  0
   70.5064   29.8141  -57.9394 P   0  0  1  0  0  5  0  0  0  0  0  0
   68.8785   30.9832  -59.7913 P   0  0  1  0  0  5  0  0  0  0  0  0
 32  1  1  0
  1 33  1  0
  2 13  2  0
 16  2  1  0
  3  5  1  0
  3 16  1  6
 29  3  1  0
 33  4  1  1
  7  5  1  0
  5 19  1  1
 18  6  1  0
 20  6  2  0
  8  7  1  0
  7 23  1  1
 10  8  1  0
  8 29  1  1
  9 20  1  0
 21  9  2  0
 10 15  1  6
 33 11  1  0
 33 12  2  0
 22 13  1  0
 32 14  2  0
 34 15  1  0
 16 21  1  0
 18 17  1  0
 22 18  2  0
 21 22  1  0
 23 32  1  0
 35 24  1  6
 35 25  1  0
 35 26  2  0
 34 27  2  0
 34 28  1  6
 32 30  1  6
 31 34  1  0
 31 35  1  0
M  END
$$$$
