
     RDKit          3D

 35 37  0  0  0  0  0  0  0  0999 V2000
   68.7463   31.9794  -57.7979 O   0  0  0  0  0  0  0  0  0  0  0  0
   69.6183   26.2953  -52.8799 C   0  0  0  0  0  0  0  0  0  0  0  0
   70.3882   28.3382  -54.1463 C   0  0  2  0  0  0  0  0  0  0  0  0
   66.2666   30.9092  -58.1898 O   0  0  0  0  0  0  0  0  0  0  0  0
   69.4158   28.6151  -55.2604 C   0  0  1  0  0  0  0  0  0  0  0  0
   72.8353   23.9272  -54.9063 N   0  0  0  0  0  0  0  0  0  0  0  0
   68.9161   29.9538  -54.9253 C   0  0  1  0  0  0  0  0  0  0  0  0
   68.9246   29.8589  -53.4052 C   0  0  1  0  0  0  0  0  0  0  0  0
   72.2963   26.1521  -55.1144 N   0  0  0  0  0  0  0  0  0  0  0  0
   67.6449   29.2220  -52.9060 C   0  0  0  0  0  0  0  0  0  0  0  0
   68.1897   29.5248  -56.7090 O   0  0  0  0  0  0  0  0  0  0  0  0
   68.3353   29.8078  -59.2728 O   0  0  0  0  0  0  0  0  0  0  0  0
   70.0067   25.0071  -52.8243 N   0  0  0  0  0  0  0  0  0  0  0  0
   67.5174   32.5344  -55.6369 O   0  0  0  0  0  0  0  0  0  0  0  0
   67.6294   29.3112  -51.5171 O   0  0  0  0  0  0  0  0  0  0  0  0
   70.3907   26.9588  -53.7354 N   0  0  0  0  0  0  0  0  0  0  0  0
   71.6388   22.4885  -53.4579 N   0  0  0  0  0  0  0  0  0  0  0  0
   71.8446   23.7620  -54.0143 C   0  0  0  0  0  0  0  0  0  0  0  0
   69.9393   28.4408  -56.5158 O   0  0  0  0  0  0  0  0  0  0  0  0
   73.0791   25.1208  -55.4712 C   0  0  0  0  0  0  0  0  0  0  0  0
   71.2875   26.0600  -54.2288 C   0  0  0  0  0  0  0  0  0  0  0  0
   71.0473   24.8285  -53.6557 C   0  0  0  0  0  0  0  0  0  0  0  0
   69.5406   31.0579  -55.2708 O   0  0  0  0  0  0  0  0  0  0  0  0
   66.8578   34.2961  -50.3197 O   0  0  0  0  0  0  0  0  0  0  0  0
   69.2197   33.5884  -51.4980 O   0  0  0  0  0  0  0  0  0  0  0  0
   68.2483   32.2278  -49.5067 O   0  0  0  0  0  0  0  0  0  0  0  0
   65.1659   30.2401  -51.1568 O   0  0  0  0  0  0  0  0  0  0  0  0
   66.9858   30.8205  -49.3427 O   0  0  0  0  0  0  0  0  0  0  0  0
   70.0510   29.1415  -53.0848 O   0  0  0  0  0  0  0  0  0  0  0  0
   69.7278   33.7543  -55.9774 O   0  0  0  0  0  0  0  0  0  0  0  0
   66.9857   32.0037  -51.8010 O   0  0  0  0  0  0  0  0  0  0  0  0
   68.9214   32.2577  -56.1564 P   0  0  1  0  0  5  0  0  0  0  0  0
   67.9091   30.5497  -58.0226 P   0  0  2  0  0  5  0  0  0  0  0  0
   66.6428   30.5577  -50.9951 P   0  0  1  0  0  5  0  0  0  0  0  0
   67.8317   33.0001  -50.7362 P   0  0  1  0  0  5  0  0  0  0  0  0
 32  1  1  0
  1 33  1  0
  2 13  2  0
 16  2  1  0
  3  5  1  0
  3 16  1  1
 29  3  1  0
 33  4  1  6
  7  5  1  0
  5 19  1  6
 18  6  1  0
 20  6  2  0
  8  7  1  0
  7 23  1  1
 10  8  1  0
  8 29  1  6
  9 20  1  0
 21  9  2  0
 10 15  1  6
 33 11  1  0
 33 12  2  0
 22 13  1  0
 32 14  2  0
 34 15  1  0
 16 21  1  0
 18 17  1  0
 22 18  2  0
 21 22  1  0
 23 32  1  0
 35 24  1  1
 35 25  1  0
 35 26  2  0
 34 27  2  0
 34 28  1  1
 32 30  1  6
 31 34  1  0
 31 35  1  0
M  END
$$$$
