
     RDKit          3D

 35 37  0  0  0  0  0  0  0  0999 V2000
   85.5557   51.8657  -38.4570 O   0  0  0  0  0  0  0  0  0  0  0  0
   88.2910   45.1184  -37.1468 C   0  0  0  0  0  0  0  0  0  0  0  0
   88.6636   47.5564  -37.5436 C   0  0  2  0  0  0  0  0  0  0  0  0
   85.5499   53.5499  -36.2650 O   0  0  0  0  0  0  0  0  0  0  0  0
   87.4833   48.3700  -37.9476 C   0  0  1  0  0  0  0  0  0  0  0  0
   88.7435   44.1651  -41.4670 N   0  0  0  0  0  0  0  0  0  0  0  0
   86.8766   48.7042  -36.5994 C   0  0  1  0  0  0  0  0  0  0  0  0
   88.1580   48.8421  -35.7907 C   0  0  1  0  0  0  0  0  0  0  0  0
   88.8732   46.2569  -40.3854 N   0  0  0  0  0  0  0  0  0  0  0  0
   87.9017   48.8505  -34.3181 C   0  0  0  0  0  0  0  0  0  0  0  0
   84.0941   51.1868  -36.2074 O   0  0  0  0  0  0  0  0  0  0  0  0
   83.4109   53.2068  -37.7020 O   0  0  0  0  0  0  0  0  0  0  0  0
   88.2402   43.9790  -37.8841 N   0  0  0  0  0  0  0  0  0  0  0  0
   87.9261   51.6852  -37.3403 O   0  0  0  0  0  0  0  0  0  0  0  0
   87.9564   47.5380  -33.8621 O   0  0  0  0  0  0  0  0  0  0  0  0
   88.5356   46.1767  -37.9392 N   0  0  0  0  0  0  0  0  0  0  0  0
   88.3226   42.1240  -40.3202 N   0  0  0  0  0  0  0  0  0  0  0  0
   88.5053   43.5327  -40.3055 C   0  0  0  0  0  0  0  0  0  0  0  0
   87.8549   49.5684  -38.5501 O   0  0  0  0  0  0  0  0  0  0  0  0
   88.9249   45.5114  -41.5038 C   0  0  0  0  0  0  0  0  0  0  0  0
   88.6378   45.6820  -39.1885 C   0  0  0  0  0  0  0  0  0  0  0  0
   88.4549   44.3086  -39.1670 C   0  0  0  0  0  0  0  0  0  0  0  0
   86.1366   49.8636  -36.6171 O   0  0  0  0  0  0  0  0  0  0  0  0
   86.3636   47.9272  -30.0291 O   0  0  0  0  0  0  0  0  0  0  0  0
   84.5336   45.9040  -30.0885 O   0  0  0  0  0  0  0  0  0  0  0  0
   84.3994   47.9968  -31.7062 O   0  0  0  0  0  0  0  0  0  0  0  0
   85.4397   48.1757  -33.6492 O   0  0  0  0  0  0  0  0  0  0  0  0
   85.8968   46.0137  -34.9751 O   0  0  0  0  0  0  0  0  0  0  0  0
   88.8304   47.6651  -36.1786 O   0  0  0  0  0  0  0  0  0  0  0  0
   87.2919   49.8838  -39.1389 O   0  0  0  0  0  0  0  0  0  0  0  0
   86.2691   46.1914  -32.2047 O   0  0  0  0  0  0  0  0  0  0  0  0
   86.7686   50.8586  -37.8429 P   0  0  1  0  0  5  0  0  0  0  0  0
   84.6186   52.4530  -37.1793 P   0  0  2  0  0  5  0  0  0  0  0  0
   86.3606   46.9776  -33.6744 P   0  0  1  0  0  5  0  0  0  0  0  0
   85.3644   47.0286  -31.0628 P   0  0  1  0  0  5  0  0  0  0  0  0
 32  1  1  0
  1 33  1  0
  2 13  2  0
 16  2  1  0
  3  5  1  0
  3 16  1  1
 29  3  1  0
 33  4  1  1
  7  5  1  0
  5 19  1  1
 18  6  1  0
 20  6  2  0
  8  7  1  0
  7 23  1  6
  8 10  1  1
  8 29  1  0
  9 20  1  0
 21  9  2  0
 15 10  1  0
 33 11  1  0
 33 12  2  0
 22 13  1  0
 32 14  2  0
 34 15  1  0
 16 21  1  0
 18 17  1  0
 22 18  2  0
 21 22  1  0
 23 32  1  0
 35 24  1  1
 35 25  1  0
 35 26  2  0
 34 27  2  0
 34 28  1  6
 32 30  1  6
 31 34  1  0
 31 35  1  0
M  END
$$$$
