
     RDKit          3D

 35 37  0  0  0  0  0  0  0  0999 V2000
   82.6272   46.9081  -37.1001 O   0  0  0  0  0  0  0  0  0  0  0  0
   87.7477   51.8787  -37.7714 C   0  0  0  0  0  0  0  0  0  0  0  0
   85.9064   50.6090  -36.6020 C   0  0  2  0  0  0  0  0  0  0  0  0
   80.0756   47.6136  -37.7633 O   0  0  0  0  0  0  0  0  0  0  0  0
   85.3418   49.5093  -37.4596 C   0  0  1  0  0  0  0  0  0  0  0  0
   84.7400   54.9730  -38.9722 N   0  0  0  0  0  0  0  0  0  0  0  0
   85.6384   48.3053  -36.6744 C   0  0  1  0  0  0  0  0  0  0  0  0
   86.9724   48.7170  -36.0654 C   0  0  1  0  0  0  0  0  0  0  0  0
   84.4581   53.0463  -37.7506 N   0  0  0  0  0  0  0  0  0  0  0  0
   88.1079   48.4125  -37.0195 C   0  0  0  0  0  0  0  0  0  0  0  0
   81.4442   48.9786  -35.7456 O   0  0  0  0  0  0  0  0  0  0  0  0
   80.5683   46.5654  -35.4559 O   0  0  0  0  0  0  0  0  0  0  0  0
   87.8154   53.0243  -38.4758 N   0  0  0  0  0  0  0  0  0  0  0  0
   84.4207   45.4098  -36.0867 O   0  0  0  0  0  0  0  0  0  0  0  0
   88.3184   47.0367  -37.0178 O   0  0  0  0  0  0  0  0  0  0  0  0
   86.4961   51.6725  -37.3720 N   0  0  0  0  0  0  0  0  0  0  0  0
   86.8556   55.6088  -39.8203 N   0  0  0  0  0  0  0  0  0  0  0  0
   86.0508   54.7091  -39.1017 C   0  0  0  0  0  0  0  0  0  0  0  0
   84.0369   49.7051  -37.8326 O   0  0  0  0  0  0  0  0  0  0  0  0
   83.9219   54.1498  -38.2968 C   0  0  0  0  0  0  0  0  0  0  0  0
   85.7602   52.7190  -37.8399 C   0  0  0  0  0  0  0  0  0  0  0  0
   86.5901   53.5728  -38.5364 C   0  0  0  0  0  0  0  0  0  0  0  0
   84.8614   47.8732  -35.7060 O   0  0  0  0  0  0  0  0  0  0  0  0
   91.8960   47.8601  -35.3971 O   0  0  0  0  0  0  0  0  0  0  0  0
   91.4823   47.0593  -32.8172 O   0  0  0  0  0  0  0  0  0  0  0  0
   90.8949   49.4720  -33.5882 O   0  0  0  0  0  0  0  0  0  0  0  0
   89.3401   45.1304  -35.4738 O   0  0  0  0  0  0  0  0  0  0  0  0
   90.9961   46.8782  -36.5431 O   0  0  0  0  0  0  0  0  0  0  0  0
   86.8498   50.0533  -35.7732 O   0  0  0  0  0  0  0  0  0  0  0  0
   82.8170   46.4722  -34.4166 O   0  0  0  0  0  0  0  0  0  0  0  0
   89.3408   47.5493  -34.4808 O   0  0  0  0  0  0  0  0  0  0  0  0
   83.7201   46.7393  -35.8432 P   0  0  1  0  0  5  0  0  0  0  0  0
   81.1809   47.4856  -36.4917 P   0  0  2  0  0  5  0  0  0  0  0  0
   89.4523   46.5928  -35.8703 P   0  0  1  0  0  5  0  0  0  0  0  0
   90.8995   48.0384  -34.0642 P   0  0  1  0  0  5  0  0  0  0  0  0
 32  1  1  0
  1 33  1  0
  2 13  2  0
 16  2  1  0
  3  5  1  0
  3 16  1  6
 29  3  1  0
 33  4  1  6
  7  5  1  0
  5 19  1  1
 18  6  1  0
 20  6  2  0
  8  7  1  0
  7 23  1  1
 10  8  1  0
  8 29  1  6
  9 20  1  0
 21  9  2  0
 10 15  1  6
 33 11  1  0
 33 12  2  0
 22 13  1  0
 32 14  2  0
 34 15  1  0
 16 21  1  0
 18 17  1  0
 22 18  2  0
 21 22  1  0
 23 32  1  0
 35 24  1  6
 35 25  1  0
 35 26  2  0
 34 27  2  0
 34 28  1  6
 32 30  1  1
 31 34  1  0
 31 35  1  0
M  END
$$$$
