
     RDKit          3D

 35 37  0  0  0  0  0  0  0  0999 V2000
   69.0683   26.6143  -48.4058 O   0  0  0  0  0  0  0  0  0  0  0  0
   70.3967   27.2294  -55.6883 C   0  0  0  0  0  0  0  0  0  0  0  0
   68.9909   26.5947  -53.6907 C   0  0  2  0  0  0  0  0  0  0  0  0
   71.5019   27.2329  -47.3366 O   0  0  0  0  0  0  0  0  0  0  0  0
   69.7021   26.4320  -52.3749 C   0  0  1  0  0  0  0  0  0  0  0  0
   71.3369   22.8932  -56.3018 N   0  0  0  0  0  0  0  0  0  0  0  0
   69.0728   27.4622  -51.5401 C   0  0  1  0  0  0  0  0  0  0  0  0
   68.8361   28.5374  -52.5926 C   0  0  1  0  0  0  0  0  0  0  0  0
   70.0369   23.9019  -54.6966 N   0  0  0  0  0  0  0  0  0  0  0  0
   70.0744   29.3909  -52.7673 C   0  0  0  0  0  0  0  0  0  0  0  0
   69.6592   29.2490  -47.9260 O   0  0  0  0  0  0  0  0  0  0  0  0
   70.9343   27.9417  -49.7534 O   0  0  0  0  0  0  0  0  0  0  0  0
   71.1366   26.5512  -56.5861 N   0  0  0  0  0  0  0  0  0  0  0  0
   67.5679   28.6355  -48.7955 O   0  0  0  0  0  0  0  0  0  0  0  0
   69.9202   30.1465  -53.9260 O   0  0  0  0  0  0  0  0  0  0  0  0
   69.8526   26.3786  -54.8231 N   0  0  0  0  0  0  0  0  0  0  0  0
   72.4367   24.1479  -57.9798 N   0  0  0  0  0  0  0  0  0  0  0  0
   71.6063   24.0905  -56.8480 C   0  0  0  0  0  0  0  0  0  0  0  0
   69.6974   25.1487  -51.8916 O   0  0  0  0  0  0  0  0  0  0  0  0
   70.5501   22.7766  -55.2199 C   0  0  0  0  0  0  0  0  0  0  0  0
   70.2637   25.1329  -55.1903 C   0  0  0  0  0  0  0  0  0  0  0  0
   71.0736   25.2392  -56.3018 C   0  0  0  0  0  0  0  0  0  0  0  0
   67.9459   27.2678  -50.8916 O   0  0  0  0  0  0  0  0  0  0  0  0
   68.3259   33.9371  -52.4411 O   0  0  0  0  0  0  0  0  0  0  0  0
   67.1277   31.7309  -53.5205 O   0  0  0  0  0  0  0  0  0  0  0  0
   67.0889   34.0211  -54.7509 O   0  0  0  0  0  0  0  0  0  0  0  0
   70.0844   32.1750  -52.2171 O   0  0  0  0  0  0  0  0  0  0  0  0
   71.9401   31.9680  -54.0755 O   0  0  0  0  0  0  0  0  0  0  0  0
   68.4722   27.8654  -53.7337 O   0  0  0  0  0  0  0  0  0  0  0  0
   66.3754   26.3847  -48.7566 O   0  0  0  0  0  0  0  0  0  0  0  0
   69.4034   32.7783  -54.6685 O   0  0  0  0  0  0  0  0  0  0  0  0
   67.7754   27.2097  -49.2871 P   0  0  1  0  0  5  0  0  0  0  0  0
   70.2917   27.7539  -48.3945 P   0  0  2  0  0  5  0  0  0  0  0  0
   70.2966   31.7552  -53.6617 P   0  0  1  0  0  5  0  0  0  0  0  0
   67.9639   33.1548  -53.8758 P   0  0  1  0  0  5  0  0  0  0  0  0
 32  1  1  0
  1 33  1  0
  2 13  2  0
 16  2  1  0
  3  5  1  0
  3 16  1  6
 29  3  1  0
 33  4  1  1
  7  5  1  0
  5 19  1  1
 18  6  1  0
 20  6  2  0
  8  7  1  0
  7 23  1  6
 10  8  1  0
  8 29  1  6
  9 20  1  0
 21  9  2  0
 10 15  1  6
 33 11  1  0
 33 12  2  0
 22 13  1  0
 32 14  2  0
 34 15  1  0
 16 21  1  0
 18 17  1  0
 22 18  2  0
 21 22  1  0
 23 32  1  0
 35 24  1  1
 35 25  1  0
 35 26  2  0
 34 27  2  0
 34 28  1  6
 32 30  1  6
 31 34  1  0
 31 35  1  0
M  END
$$$$
