
     RDKit          3D

 35 37  0  0  0  0  0  0  0  0999 V2000
   71.5130   29.9120  -54.0434 O   0  0  0  0  0  0  0  0  0  0  0  0
   66.9852   33.2912  -54.2004 C   0  0  0  0  0  0  0  0  0  0  0  0
   69.1603   33.9019  -55.2663 C   0  0  2  0  0  0  0  0  0  0  0  0
   71.9001   30.5975  -51.3936 O   0  0  0  0  0  0  0  0  0  0  0  0
   70.2799   32.9533  -55.0113 C   0  0  1  0  0  0  0  0  0  0  0  0
   67.9929   35.4918  -50.4695 N   0  0  0  0  0  0  0  0  0  0  0  0
   70.0469   31.9195  -56.0949 C   0  0  1  0  0  0  0  0  0  0  0  0
   69.5337   32.8391  -57.1931 C   0  0  1  0  0  0  0  0  0  0  0  0
   69.2686   35.2406  -52.4371 N   0  0  0  0  0  0  0  0  0  0  0  0
   68.8938   32.0837  -58.3130 C   0  0  0  0  0  0  0  0  0  0  0  0
   69.3703   29.8909  -52.2923 O   0  0  0  0  0  0  0  0  0  0  0  0
   70.5227   32.1199  -52.9882 O   0  0  0  0  0  0  0  0  0  0  0  0
   66.3518   33.5088  -53.0189 N   0  0  0  0  0  0  0  0  0  0  0  0
   73.5856   30.7562  -55.4179 O   0  0  0  0  0  0  0  0  0  0  0  0
   68.6340   30.7914  -57.8702 O   0  0  0  0  0  0  0  0  0  0  0  0
   68.1868   33.8943  -54.2038 N   0  0  0  0  0  0  0  0  0  0  0  0
   65.8337   34.5365  -50.1803 N   0  0  0  0  0  0  0  0  0  0  0  0
   66.9892   34.7564  -50.9769 C   0  0  0  0  0  0  0  0  0  0  0  0
   71.5225   33.5349  -55.2453 O   0  0  0  0  0  0  0  0  0  0  0  0
   69.1183   35.7296  -51.1931 C   0  0  0  0  0  0  0  0  0  0  0  0
   68.2976   34.4952  -53.0028 C   0  0  0  0  0  0  0  0  0  0  0  0
   67.1562   34.2613  -52.2527 C   0  0  0  0  0  0  0  0  0  0  0  0
   71.1952   31.2546  -56.4574 O   0  0  0  0  0  0  0  0  0  0  0  0
   66.8351   29.7398  -53.8272 O   0  0  0  0  0  0  0  0  0  0  0  0
   67.1030   28.2397  -56.0907 O   0  0  0  0  0  0  0  0  0  0  0  0
   64.7574   29.1207  -55.2325 O   0  0  0  0  0  0  0  0  0  0  0  0
   66.3356   31.5569  -58.8279 O   0  0  0  0  0  0  0  0  0  0  0  0
   66.5402   29.0223  -58.4092 O   0  0  0  0  0  0  0  0  0  0  0  0
   68.5754   33.5824  -56.4740 O   0  0  0  0  0  0  0  0  0  0  0  0
   72.1259   32.5594  -54.1934 O   0  0  0  0  0  0  0  0  0  0  0  0
   66.3954   30.8886  -56.3256 O   0  0  0  0  0  0  0  0  0  0  0  0
   72.1588   31.0957  -55.0652 P   0  0  1  0  0  5  0  0  0  0  0  0
   70.8079   30.6583  -52.7012 P   0  0  2  0  0  5  0  0  0  0  0  0
   66.9476   30.5638  -57.8671 P   0  0  1  0  0  5  0  0  0  0  0  0
   66.2095   29.5081  -55.3858 P   0  0  1  0  0  5  0  0  0  0  0  0
 32  1  1  0
  1 33  1  0
  2 13  2  0
 16  2  1  0
  3  5  1  0
  3 16  1  1
 29  3  1  0
 33  4  1  1
  7  5  1  0
  5 19  1  6
 18  6  1  0
 20  6  2  0
  8  7  1  0
  7 23  1  6
  8 10  1  6
  8 29  1  0
  9 20  1  0
 21  9  2  0
 15 10  1  0
 33 11  1  0
 33 12  2  0
 22 13  1  0
 32 14  2  0
 34 15  1  0
 16 21  1  0
 18 17  1  0
 22 18  2  0
 21 22  1  0
 23 32  1  0
 35 24  1  1
 35 25  1  0
 35 26  2  0
 34 27  2  0
 34 28  1  6
 32 30  1  1
 31 34  1  0
 31 35  1  0
M  END
$$$$
