
     RDKit          3D

 35 37  0  0  0  0  0  0  0  0999 V2000
   65.5136   34.2199  -53.0314 O   0  0  0  0  0  0  0  0  0  0  0  0
   70.9796   29.8618  -54.0753 C   0  0  0  0  0  0  0  0  0  0  0  0
   69.7525   31.4041  -52.4989 C   0  0  2  0  0  0  0  0  0  0  0  0
   66.7406   32.9105  -55.0876 O   0  0  0  0  0  0  0  0  0  0  0  0
   68.7132   32.1497  -53.2909 C   0  0  1  0  0  0  0  0  0  0  0  0
   74.5028   32.6222  -53.9035 N   0  0  0  0  0  0  0  0  0  0  0  0
   67.4615   31.7438  -52.6407 C   0  0  1  0  0  0  0  0  0  0  0  0
   67.8152   30.3084  -52.2744 C   0  0  1  0  0  0  0  0  0  0  0  0
   72.4622   32.7775  -52.8567 N   0  0  0  0  0  0  0  0  0  0  0  0
   67.5465   29.3812  -53.4409 C   0  0  0  0  0  0  0  0  0  0  0  0
   63.9627   33.2101  -55.0553 O   0  0  0  0  0  0  0  0  0  0  0  0
   65.2161   31.6140  -53.4566 O   0  0  0  0  0  0  0  0  0  0  0  0
   72.2001   29.8563  -54.6443 N   0  0  0  0  0  0  0  0  0  0  0  0
   64.6886   33.1391  -50.8775 O   0  0  0  0  0  0  0  0  0  0  0  0
   68.0642   28.1280  -53.1267 O   0  0  0  0  0  0  0  0  0  0  0  0
   70.8481   30.9408  -53.3093 N   0  0  0  0  0  0  0  0  0  0  0  0
   75.0325   30.8117  -55.3321 N   0  0  0  0  0  0  0  0  0  0  0  0
   74.1274   31.4698  -54.4827 C   0  0  0  0  0  0  0  0  0  0  0  0
   68.9519   33.4956  -53.3994 O   0  0  0  0  0  0  0  0  0  0  0  0
   73.6805   33.2955  -53.0827 C   0  0  0  0  0  0  0  0  0  0  0  0
   72.0196   31.6297  -53.4017 C   0  0  0  0  0  0  0  0  0  0  0  0
   72.8738   30.9477  -54.2431 C   0  0  0  0  0  0  0  0  0  0  0  0
   66.9881   32.3364  -51.5670 O   0  0  0  0  0  0  0  0  0  0  0  0
   64.2123   26.8658  -49.8828 O   0  0  0  0  0  0  0  0  0  0  0  0
   64.4887   28.5124  -52.0462 O   0  0  0  0  0  0  0  0  0  0  0  0
   65.1553   29.3017  -49.6602 O   0  0  0  0  0  0  0  0  0  0  0  0
   65.5574   27.2465  -53.1046 O   0  0  0  0  0  0  0  0  0  0  0  0
   67.4751   25.5408  -52.5104 O   0  0  0  0  0  0  0  0  0  0  0  0
   69.1346   30.3372  -51.8941 O   0  0  0  0  0  0  0  0  0  0  0  0
   66.5003   34.9061  -50.5854 O   0  0  0  0  0  0  0  0  0  0  0  0
   66.7151   27.5033  -50.7742 O   0  0  0  0  0  0  0  0  0  0  0  0
   65.9767   33.5949  -51.5490 P   0  0  1  0  0  5  0  0  0  0  0  0
   65.3525   32.9661  -54.1258 P   0  0  2  0  0  5  0  0  0  0  0  0
   66.9081   27.1493  -52.4160 P   0  0  1  0  0  5  0  0  0  0  0  0
   65.1475   28.0822  -50.5516 P   0  0  1  0  0  5  0  0  0  0  0  0
 32  1  1  0
  1 33  1  0
  2 13  2  0
 16  2  1  0
  3  5  1  0
  3 16  1  6
 29  3  1  0
 33  4  1  6
  7  5  1  0
  5 19  1  1
 18  6  1  0
 20  6  2  0
  8  7  1  0
  7 23  1  1
 10  8  1  0
  8 29  1  6
  9 20  1  0
 21  9  2  0
 10 15  1  6
 33 11  1  0
 33 12  2  0
 22 13  1  0
 32 14  2  0
 34 15  1  0
 16 21  1  0
 18 17  1  0
 22 18  2  0
 21 22  1  0
 23 32  1  0
 35 24  1  1
 35 25  1  0
 35 26  2  0
 34 27  2  0
 34 28  1  1
 32 30  1  1
 31 34  1  0
 31 35  1  0
M  END
$$$$
