
     RDKit          3D

 35 37  0  0  0  0  0  0  0  0999 V2000
   67.2132   31.4779  -58.2335 O   0  0  0  0  0  0  0  0  0  0  0  0
   70.1511   28.2899  -52.3639 C   0  0  0  0  0  0  0  0  0  0  0  0
   69.7362   27.9416  -54.8289 C   0  0  2  0  0  0  0  0  0  0  0  0
   67.2931   34.1524  -57.6962 O   0  0  0  0  0  0  0  0  0  0  0  0
   68.3931   28.5561  -55.1150 C   0  0  1  0  0  0  0  0  0  0  0  0
   69.6919   23.8773  -51.7465 N   0  0  0  0  0  0  0  0  0  0  0  0
   68.7160   29.5847  -56.1110 C   0  0  1  0  0  0  0  0  0  0  0  0
   70.0894   30.0089  -55.6073 C   0  0  1  0  0  0  0  0  0  0  0  0
   69.5551   25.1123  -53.6803 N   0  0  0  0  0  0  0  0  0  0  0  0
   69.9565   31.0566  -54.5225 C   0  0  0  0  0  0  0  0  0  0  0  0
   69.5786   32.5755  -57.3840 O   0  0  0  0  0  0  0  0  0  0  0  0
   67.5569   32.4411  -55.7812 O   0  0  0  0  0  0  0  0  0  0  0  0
   70.2129   27.4853  -51.2858 N   0  0  0  0  0  0  0  0  0  0  0  0
   69.6029   31.0963  -59.0288 O   0  0  0  0  0  0  0  0  0  0  0  0
   69.7177   30.4040  -53.3165 O   0  0  0  0  0  0  0  0  0  0  0  0
   69.8968   27.5646  -53.4492 N   0  0  0  0  0  0  0  0  0  0  0  0
   70.1339   24.8894  -49.6537 N   0  0  0  0  0  0  0  0  0  0  0  0
   69.9380   24.9937  -51.0410 C   0  0  0  0  0  0  0  0  0  0  0  0
   67.4221   27.6473  -55.4490 O   0  0  0  0  0  0  0  0  0  0  0  0
   69.4965   23.9152  -53.0744 C   0  0  0  0  0  0  0  0  0  0  0  0
   69.7967   26.2698  -53.0381 C   0  0  0  0  0  0  0  0  0  0  0  0
   69.9957   26.2173  -51.6742 C   0  0  0  0  0  0  0  0  0  0  0  0
   68.8114   29.3302  -57.3973 O   0  0  0  0  0  0  0  0  0  0  0  0
   68.1151   29.8387  -48.9398 O   0  0  0  0  0  0  0  0  0  0  0  0
   69.2945   28.8664  -51.2051 O   0  0  0  0  0  0  0  0  0  0  0  0
   66.7480   29.3859  -51.1304 O   0  0  0  0  0  0  0  0  0  0  0  0
   70.9616   31.1619  -51.0938 O   0  0  0  0  0  0  0  0  0  0  0  0
   69.9759   33.0355  -52.6617 O   0  0  0  0  0  0  0  0  0  0  0  0
   70.6996   28.8555  -55.1789 O   0  0  0  0  0  0  0  0  0  0  0  0
   67.8610   29.5219  -60.0174 O   0  0  0  0  0  0  0  0  0  0  0  0
   68.3639   31.4589  -51.1258 O   0  0  0  0  0  0  0  0  0  0  0  0
   68.3677   30.3201  -58.5932 P   0  0  1  0  0  5  0  0  0  0  0  0
   67.8960   32.6401  -57.2441 P   0  0  2  0  0  5  0  0  0  0  0  0
   69.7971   31.4617  -52.0225 P   0  0  1  0  0  5  0  0  0  0  0  0
   68.0789   29.8785  -50.6127 P   0  0  1  0  0  5  0  0  0  0  0  0
 32  1  1  0
  1 33  1  0
  2 13  2  0
 16  2  1  0
  3  5  1  0
  3 16  1  1
 29  3  1  0
 33  4  1  6
  7  5  1  0
  5 19  1  6
 18  6  1  0
 20  6  2  0
  8  7  1  0
  7 23  1  6
 10  8  1  0
  8 29  1  1
  9 20  1  0
 21  9  2  0
 10 15  1  6
 33 11  1  0
 33 12  2  0
 22 13  1  0
 32 14  2  0
 34 15  1  0
 16 21  1  0
 18 17  1  0
 22 18  2  0
 21 22  1  0
 23 32  1  0
 35 24  1  1
 35 25  1  0
 35 26  2  0
 34 27  2  0
 34 28  1  6
 32 30  1  6
 31 34  1  0
 31 35  1  0
M  END
$$$$
