
     RDKit          3D

 35 37  0  0  0  0  0  0  0  0999 V2000
   84.6115   46.4053  -35.3664 O   0  0  0  0  0  0  0  0  0  0  0  0
   86.8136   53.1199  -37.5699 C   0  0  0  0  0  0  0  0  0  0  0  0
   85.6508   51.6782  -35.8555 C   0  0  2  0  0  0  0  0  0  0  0  0
   82.6815   47.8172  -36.6815 O   0  0  0  0  0  0  0  0  0  0  0  0
   85.0056   50.4302  -36.3938 C   0  0  1  0  0  0  0  0  0  0  0  0
   82.9563   55.2973  -38.2355 N   0  0  0  0  0  0  0  0  0  0  0  0
   85.7317   49.3650  -35.6921 C   0  0  1  0  0  0  0  0  0  0  0  0
   87.1129   50.0024  -35.6148 C   0  0  1  0  0  0  0  0  0  0  0  0
   83.4345   53.5574  -36.8114 N   0  0  0  0  0  0  0  0  0  0  0  0
   87.8912   49.7383  -36.8863 C   0  0  0  0  0  0  0  0  0  0  0  0
   81.9946   46.0543  -34.6253 O   0  0  0  0  0  0  0  0  0  0  0  0
   82.8094   45.2519  -36.9418 O   0  0  0  0  0  0  0  0  0  0  0  0
   86.4400   54.1367  -38.3699 N   0  0  0  0  0  0  0  0  0  0  0  0
   85.5559   46.8732  -33.0475 O   0  0  0  0  0  0  0  0  0  0  0  0
   89.2482   49.8332  -36.5915 O   0  0  0  0  0  0  0  0  0  0  0  0
   85.7743   52.7160  -36.8452 N   0  0  0  0  0  0  0  0  0  0  0  0
   84.6041   56.2321  -39.6533 N   0  0  0  0  0  0  0  0  0  0  0  0
   84.2264   55.2996  -38.6727 C   0  0  0  0  0  0  0  0  0  0  0  0
   83.6378   50.4213  -36.2969 O   0  0  0  0  0  0  0  0  0  0  0  0
   82.5378   54.4295  -37.3001 C   0  0  0  0  0  0  0  0  0  0  0  0
   84.7209   53.5025  -37.2020 C   0  0  0  0  0  0  0  0  0  0  0  0
   85.1384   54.3992  -38.1634 C   0  0  0  0  0  0  0  0  0  0  0  0
   85.4043   48.9485  -34.4889 O   0  0  0  0  0  0  0  0  0  0  0  0
   92.0952   47.5462  -34.3846 O   0  0  0  0  0  0  0  0  0  0  0  0
   90.0338   46.8578  -32.7280 O   0  0  0  0  0  0  0  0  0  0  0  0
   90.2188   49.2530  -33.7225 O   0  0  0  0  0  0  0  0  0  0  0  0
   89.7068   47.6246  -37.9964 O   0  0  0  0  0  0  0  0  0  0  0  0
   91.6830   48.6120  -36.5611 O   0  0  0  0  0  0  0  0  0  0  0  0
   86.8925   51.3372  -35.3783 O   0  0  0  0  0  0  0  0  0  0  0  0
   83.1633   47.6605  -33.4288 O   0  0  0  0  0  0  0  0  0  0  0  0
   89.5676   47.3381  -35.4010 O   0  0  0  0  0  0  0  0  0  0  0  0
   84.7157   47.5321  -34.1327 P   0  0  1  0  0  5  0  0  0  0  0  0
   83.0358   46.3496  -35.9228 P   0  0  2  0  0  5  0  0  0  0  0  0
   90.0013   48.3423  -36.6901 P   0  0  1  0  0  5  0  0  0  0  0  0
   90.4739   47.8022  -34.0574 P   0  0  1  0  0  5  0  0  0  0  0  0
 32  1  1  0
  1 33  1  0
  2 13  2  0
 16  2  1  0
  3  5  1  0
  3 16  1  6
 29  3  1  0
 33  4  1  6
  7  5  1  0
  5 19  1  1
 18  6  1  0
 20  6  2  0
  8  7  1  0
  7 23  1  1
 10  8  1  0
  8 29  1  6
  9 20  1  0
 21  9  2  0
 10 15  1  6
 33 11  1  0
 33 12  2  0
 22 13  1  0
 32 14  2  0
 34 15  1  0
 16 21  1  0
 18 17  1  0
 22 18  2  0
 21 22  1  0
 23 32  1  0
 35 24  1  6
 35 25  1  0
 35 26  2  0
 34 27  2  0
 34 28  1  1
 32 30  1  1
 31 34  1  0
 31 35  1  0
M  END
$$$$
