
     RDKit          3D

 61 62  0  0  0  0  0  0  0  0999 V2000
   56.8729  114.7198   27.0350 N   0  0  0  0  0  4  0  0  0  0  0  0
   57.2702  114.7810   25.6627 C   0  0  2  0  0  0  0  0  0  0  0  0
   56.0893  114.4014   24.8299 C   0  0  0  0  0  0  0  0  0  0  0  0
   55.3802  113.4359   25.1782 O   0  0  0  0  0  0  0  0  0  0  0  0
   58.4440  113.9196   25.3786 C   0  0  0  0  0  0  0  0  0  0  0  0
   59.7988  114.4520   25.6302 C   0  0  0  0  0  0  0  0  0  0  0  0
   60.5446  114.7564   24.4216 C   0  0  0  0  0  0  0  0  0  0  0  0
   61.6214  114.0929   24.2161 O   0  0  0  0  0  0  0  0  0  0  0  0
   60.2087  115.7027   23.4592 O   0  0  0  0  0  0  0  0  0  0  0  0
   55.7620  115.1208   23.6539 N   0  0  0  0  0  0  0  0  0  0  0  0
   54.7551  114.5826   22.8043 C   0  0  2  0  0  0  0  0  0  0  0  0
   55.0893  113.3502   22.0635 C   0  0  0  0  0  0  0  0  0  0  0  0
   56.2277  113.3368   21.4357 O   0  0  0  0  0  0  0  0  0  0  0  0
   54.1784  115.6110   21.8485 C   0  0  0  0  0  0  0  0  0  0  0  0
   53.1067  115.0682   21.0133 C   0  0  0  0  0  0  0  0  0  0  0  0
   52.6219  115.7274   19.9022 O   0  0  0  0  0  0  0  0  0  0  0  0
   52.5892  113.9626   21.2935 O   0  0  0  0  0  0  0  0  0  0  0  0
   54.3330  112.1717   21.9418 N   0  0  0  0  0  0  0  0  0  0  0  0
   54.5717  111.0816   21.0409 C   0  0  2  0  0  0  0  0  0  0  0  0
   54.9633  111.4431   19.6704 C   0  0  0  0  0  0  0  0  0  0  0  0
   55.8667  110.8001   19.0896 O   0  0  0  0  0  0  0  0  0  0  0  0
   53.3013  110.2440   21.0460 C   0  0  0  0  0  0  0  0  0  0  0  0
   52.2510  111.1246   21.7033 C   0  0  0  0  0  0  0  0  0  0  0  0
   53.1166  111.8842   22.7202 C   0  0  0  0  0  0  0  0  0  0  0  0
   54.3488  112.5112   18.9633 N   0  0  0  0  0  0  0  0  0  0  0  0
   54.6912  112.9510   17.6450 C   0  0  2  0  0  0  0  0  0  0  0  0
   55.9689  113.7331   17.6539 C   0  0  0  0  0  0  0  0  0  0  0  0
   56.2394  114.4549   18.6667 O   0  0  0  0  0  0  0  0  0  0  0  0
   53.5301  113.7363   17.0869 C   0  0  0  0  0  0  0  0  0  0  0  0
   52.2103  113.1165   17.3500 C   0  0  0  0  0  0  0  0  0  0  0  0
   51.0526  113.7061   16.8921 C   0  0  0  0  0  0  0  0  0  0  0  0
   52.1070  111.9523   18.0682 C   0  0  0  0  0  0  0  0  0  0  0  0
   49.7856  113.1818   17.1217 C   0  0  0  0  0  0  0  0  0  0  0  0
   50.8750  111.3915   18.3229 C   0  0  0  0  0  0  0  0  0  0  0  0
   49.7325  112.0154   17.8455 C   0  0  0  0  0  0  0  0  0  0  0  0
   48.5284  111.3889   18.1423 O   0  0  0  0  0  0  0  0  0  0  0  0
   56.8368  113.6684   16.5842 N   0  0  0  0  0  0  0  0  0  0  0  0
   57.8059  114.6361   16.1381 C   0  0  2  0  0  0  0  0  0  0  0  0
   57.1925  115.7411   15.3955 C   0  0  0  0  0  0  0  0  0  0  0  0
   55.9939  115.6039   15.0782 O   0  0  0  0  0  0  0  0  0  0  0  0
   58.9647  114.0889   15.3447 C   0  0  0  0  0  0  0  0  0  0  0  0
   59.9302  115.1054   14.8799 C   0  0  0  0  0  0  0  0  0  0  0  0
   60.2305  115.2631   13.6754 O   0  0  0  0  0  0  0  0  0  0  0  0
   60.5493  115.9416   15.7985 O   0  0  0  0  0  0  0  0  0  0  0  0
   57.8288  116.9234   15.0131 N   0  0  0  0  0  0  0  0  0  0  0  0
   57.6308  118.2706   15.3584 C   0  0  2  0  0  0  0  0  0  0  0  0
   58.4334  119.2981   14.6693 C   0  0  0  0  0  0  0  0  0  0  0  0
   58.2404  120.5201   14.8370 O   0  0  0  0  0  0  0  0  0  0  0  0
   57.4945  118.5556   16.8084 C   0  0  0  0  0  0  0  0  0  0  0  0
   57.0544  119.9428   17.1475 C   0  0  1  0  0  0  0  0  0  0  0  0
   58.0901  120.9255   17.5114 C   0  0  0  0  0  0  0  0  0  0  0  0
   56.1937  120.5508   16.0332 C   0  0  0  0  0  0  0  0  0  0  0  0
   59.4786  118.9663   13.7729 N   0  0  0  0  0  0  0  0  0  0  0  0
   60.2479  120.0319   13.1768 C   0  0  2  0  0  0  0  0  0  0  0  0
   59.3149  121.1936   12.9849 C   0  0  0  0  0  0  0  0  0  0  0  0
   58.4933  121.6268   14.0128 O   0  0  0  0  0  0  0  0  0  0  0  0
   60.8610  119.7093   11.8587 C   0  0  0  0  0  0  0  0  0  0  0  0
   61.6078  120.8253   11.2385 C   0  0  0  0  0  0  0  0  0  0  0  0
   62.1846  121.6916   11.9399 O   0  0  0  0  0  0  0  0  0  0  0  0
   61.7141  120.9791    9.8274 N   0  0  0  0  0  0  0  0  0  0  0  0
   59.2585  121.8019   11.8858 O   0  0  0  0  0  0  0  0  0  0  0  0
  2  1  1  1
  2  3  1  0
  2  5  1  0
  3  4  2  0
  3 10  1  0
  5  6  1  0
  6  7  1  0
  7  8  2  0
  7  9  1  0
 10 11  1  0
 11 12  1  0
 11 14  1  6
 12 13  2  0
 12 18  1  0
 14 15  1  0
 15 16  1  0
 15 17  2  0
 18 19  1  0
 18 24  1  0
 19 20  1  6
 19 22  1  0
 20 21  2  0
 20 25  1  0
 22 23  1  0
 23 24  1  0
 25 26  1  0
 26 27  1  0
 26 29  1  1
 27 28  2  0
 27 37  1  0
 29 30  1  0
 30 31  2  0
 30 32  1  0
 31 33  1  0
 32 34  2  0
 33 35  2  0
 34 35  1  0
 35 36  1  0
 37 38  1  0
 38 39  1  0
 38 41  1  6
 39 40  2  0
 39 45  1  0
 41 42  1  0
 42 43  2  0
 42 44  1  0
 45 46  1  0
 46 47  1  0
 46 49  1  1
 47 48  2  0
 47 53  1  0
 49 50  1  0
 50 51  1  6
 50 52  1  0
 53 54  1  0
 54 55  1  0
 54 57  1  6
 55 56  1  0
 55 61  2  0
 57 58  1  0
 58 59  2  0
 58 60  1  0
M  CHG  1   1   1
M  END
$$$$
