
     RDKit          3D

 61 62  0  0  0  0  0  0  0  0999 V2000
   60.8040  120.4703   18.9596 N   0  0  0  0  0  4  0  0  0  0  0  0
   59.7945  119.5274   18.5901 C   0  0  2  0  0  0  0  0  0  0  0  0
   58.7616  119.5204   19.6695 C   0  0  0  0  0  0  0  0  0  0  0  0
   59.0156  120.0649   20.7628 O   0  0  0  0  0  0  0  0  0  0  0  0
   60.3508  118.1731   18.3516 C   0  0  0  0  0  0  0  0  0  0  0  0
   61.5936  117.7785   19.0460 C   0  0  0  0  0  0  0  0  0  0  0  0
   61.9180  116.3688   18.9149 C   0  0  0  0  0  0  0  0  0  0  0  0
   63.0742  116.0758   18.4468 O   0  0  0  0  0  0  0  0  0  0  0  0
   61.0953  115.2971   19.2454 O   0  0  0  0  0  0  0  0  0  0  0  0
   57.4996  118.9077   19.4702 N   0  0  0  0  0  0  0  0  0  0  0  0
   56.5757  118.9217   20.5527 C   0  0  2  0  0  0  0  0  0  0  0  0
   56.7281  117.8721   21.5796 C   0  0  0  0  0  0  0  0  0  0  0  0
   56.6097  116.6412   21.1784 O   0  0  0  0  0  0  0  0  0  0  0  0
   55.1302  118.9794   20.0937 C   0  0  0  0  0  0  0  0  0  0  0  0
   54.6812  120.3425   19.8093 C   0  0  0  0  0  0  0  0  0  0  0  0
   55.2477  121.4522   20.4023 O   0  0  0  0  0  0  0  0  0  0  0  0
   53.7470  120.5411   18.9992 O   0  0  0  0  0  0  0  0  0  0  0  0
   56.9867  118.0243   22.9527 N   0  0  0  0  0  0  0  0  0  0  0  0
   57.0034  116.9918   23.9480 C   0  0  2  0  0  0  0  0  0  0  0  0
   55.9389  115.9815   23.8560 C   0  0  0  0  0  0  0  0  0  0  0  0
   56.2185  114.7676   23.9807 O   0  0  0  0  0  0  0  0  0  0  0  0
   56.9715  117.7019   25.2934 C   0  0  0  0  0  0  0  0  0  0  0  0
   56.5735  119.1338   24.9742 C   0  0  0  0  0  0  0  0  0  0  0  0
   57.2511  119.3165   23.6075 C   0  0  0  0  0  0  0  0  0  0  0  0
   54.5808  116.3300   23.6274 N   0  0  0  0  0  0  0  0  0  0  0  0
   53.6462  115.5885   22.8365 C   0  0  2  0  0  0  0  0  0  0  0  0
   54.3177  114.4417   22.1449 C   0  0  0  0  0  0  0  0  0  0  0  0
   55.5803  114.3181   22.2469 O   0  0  0  0  0  0  0  0  0  0  0  0
   52.9752  116.5380   21.8750 C   0  0  0  0  0  0  0  0  0  0  0  0
   51.4980  116.4247   21.8592 C   0  0  0  0  0  0  0  0  0  0  0  0
   50.8370  116.0055   20.7256 C   0  0  0  0  0  0  0  0  0  0  0  0
   50.7525  116.7490   22.9641 C   0  0  0  0  0  0  0  0  0  0  0  0
   49.4534  115.8955   20.6445 C   0  0  0  0  0  0  0  0  0  0  0  0
   49.3785  116.6570   22.9357 C   0  0  0  0  0  0  0  0  0  0  0  0
   48.7497  116.2315   21.7756 C   0  0  0  0  0  0  0  0  0  0  0  0
   47.3629  116.1639   21.8253 O   0  0  0  0  0  0  0  0  0  0  0  0
   53.5789  113.5355   21.4137 N   0  0  0  0  0  0  0  0  0  0  0  0
   54.0208  112.3640   20.7018 C   0  0  2  0  0  0  0  0  0  0  0  0
   54.1169  112.5905   19.2566 C   0  0  0  0  0  0  0  0  0  0  0  0
   53.6041  113.6406   18.8202 O   0  0  0  0  0  0  0  0  0  0  0  0
   53.2327  111.1044   20.9546 C   0  0  0  0  0  0  0  0  0  0  0  0
   51.7725  111.2440   20.7822 C   0  0  0  0  0  0  0  0  0  0  0  0
   51.2288  112.2969   20.3804 O   0  0  0  0  0  0  0  0  0  0  0  0
   50.9373  110.1735   21.0699 O   0  0  0  0  0  0  0  0  0  0  0  0
   54.7253  111.7386   18.3331 N   0  0  0  0  0  0  0  0  0  0  0  0
   54.9326  111.8233   16.9462 C   0  0  2  0  0  0  0  0  0  0  0  0
   55.7620  112.9259   16.4255 C   0  0  0  0  0  0  0  0  0  0  0  0
   56.0820  113.0101   15.2218 O   0  0  0  0  0  0  0  0  0  0  0  0
   53.7414  111.5779   16.0959 C   0  0  0  0  0  0  0  0  0  0  0  0
   53.9996  111.5655   14.6242 C   0  0  1  0  0  0  0  0  0  0  0  0
   54.9441  110.5647   14.0979 C   0  0  0  0  0  0  0  0  0  0  0  0
   52.6965  111.4561   13.8228 C   0  0  0  0  0  0  0  0  0  0  0  0
   56.2486  113.9643   17.2569 N   0  0  0  0  0  0  0  0  0  0  0  0
   57.0089  115.0352   16.6588 C   0  0  2  0  0  0  0  0  0  0  0  0
   58.0551  115.4425   17.6568 C   0  0  0  0  0  0  0  0  0  0  0  0
   58.7468  116.6350   17.5197 O   0  0  0  0  0  0  0  0  0  0  0  0
   56.2206  116.2453   16.2961 C   0  0  0  0  0  0  0  0  0  0  0  0
   56.7166  116.9677   15.1045 C   0  0  0  0  0  0  0  0  0  0  0  0
   57.6396  116.4974   14.3959 O   0  0  0  0  0  0  0  0  0  0  0  0
   56.1819  118.2225   14.6975 N   0  0  0  0  0  0  0  0  0  0  0  0
   58.3274  114.7103   18.6423 O   0  0  0  0  0  0  0  0  0  0  0  0
  2  1  1  1
  2  3  1  0
  2  5  1  0
  3  4  2  0
  3 10  1  0
  5  6  1  0
  6  7  1  0
  7  8  2  0
  7  9  1  0
 10 11  1  0
 11 12  1  0
 11 14  1  6
 12 13  2  0
 12 18  1  0
 14 15  1  0
 15 16  1  0
 15 17  2  0
 18 19  1  0
 18 24  1  0
 19 20  1  6
 19 22  1  0
 20 21  2  0
 20 25  1  0
 22 23  1  0
 23 24  1  0
 25 26  1  0
 26 27  1  0
 26 29  1  6
 27 28  2  0
 27 37  1  0
 29 30  1  0
 30 31  2  0
 30 32  1  0
 31 33  1  0
 32 34  2  0
 33 35  2  0
 34 35  1  0
 35 36  1  0
 37 38  1  0
 38 39  1  0
 38 41  1  6
 39 40  2  0
 39 45  1  0
 41 42  1  0
 42 43  2  0
 42 44  1  0
 45 46  1  0
 46 47  1  0
 46 49  1  6
 47 48  2  0
 47 53  1  0
 49 50  1  0
 50 51  1  1
 50 52  1  0
 53 54  1  0
 54 55  1  0
 54 57  1  1
 55 56  1  0
 55 61  2  0
 57 58  1  0
 58 59  2  0
 58 60  1  0
M  CHG  1   1   1
M  END
$$$$
