
     RDKit          3D

 61 62  0  0  0  0  0  0  0  0999 V2000
   61.0676  117.0035   14.8179 N   0  0  0  0  0  4  0  0  0  0  0  0
   60.3039  117.1401   16.0191 C   0  0  2  0  0  0  0  0  0  0  0  0
   59.5164  115.8838   16.2029 C   0  0  0  0  0  0  0  0  0  0  0  0
   59.2795  115.1604   15.2146 O   0  0  0  0  0  0  0  0  0  0  0  0
   59.4305  118.3389   15.9965 C   0  0  0  0  0  0  0  0  0  0  0  0
   59.9915  119.6232   15.5294 C   0  0  0  0  0  0  0  0  0  0  0  0
   60.4897  120.4706   16.5987 C   0  0  0  0  0  0  0  0  0  0  0  0
   61.0366  121.5788   16.2601 O   0  0  0  0  0  0  0  0  0  0  0  0
   60.4358  120.1992   17.9618 O   0  0  0  0  0  0  0  0  0  0  0  0
   59.0373  115.5011   17.4803 N   0  0  0  0  0  0  0  0  0  0  0  0
   58.2668  114.3080   17.5709 C   0  0  2  0  0  0  0  0  0  0  0  0
   56.7978  114.4541   17.5551 C   0  0  0  0  0  0  0  0  0  0  0  0
   56.2716  115.1667   18.5067 O   0  0  0  0  0  0  0  0  0  0  0  0
   58.6786  113.4270   18.7362 C   0  0  0  0  0  0  0  0  0  0  0  0
   58.0344  112.1137   18.7075 C   0  0  0  0  0  0  0  0  0  0  0  0
   57.1484  111.7403   17.7177 O   0  0  0  0  0  0  0  0  0  0  0  0
   58.2777  111.2738   19.6040 O   0  0  0  0  0  0  0  0  0  0  0  0
   55.8765  113.9193   16.6383 N   0  0  0  0  0  0  0  0  0  0  0  0
   54.4494  114.0581   16.6675 C   0  0  2  0  0  0  0  0  0  0  0  0
   53.8102  113.9369   17.9862 C   0  0  0  0  0  0  0  0  0  0  0  0
   52.7609  114.5739   18.2319 O   0  0  0  0  0  0  0  0  0  0  0  0
   53.9045  113.0214   15.6960 C   0  0  0  0  0  0  0  0  0  0  0  0
   55.0710  112.0863   15.4219 C   0  0  0  0  0  0  0  0  0  0  0  0
   56.2459  113.0738   15.4905 C   0  0  0  0  0  0  0  0  0  0  0  0
   54.3422  113.1122   19.0135 N   0  0  0  0  0  0  0  0  0  0  0  0
   53.6565  112.7059   20.2024 C   0  0  2  0  0  0  0  0  0  0  0  0
   54.1824  113.4332   21.4018 C   0  0  0  0  0  0  0  0  0  0  0  0
   53.7142  113.1432   22.5492 O   0  0  0  0  0  0  0  0  0  0  0  0
   53.7718  111.2070   20.3316 C   0  0  0  0  0  0  0  0  0  0  0  0
   53.0013  110.4600   19.3102 C   0  0  0  0  0  0  0  0  0  0  0  0
   53.6382  109.8732   18.2389 C   0  0  0  0  0  0  0  0  0  0  0  0
   51.6368  110.3481   19.3963 C   0  0  0  0  0  0  0  0  0  0  0  0
   52.9683  109.1746   17.2407 C   0  0  0  0  0  0  0  0  0  0  0  0
   50.9261  109.6662   18.4335 C   0  0  0  0  0  0  0  0  0  0  0  0
   51.6032  109.0896   17.3698 C   0  0  0  0  0  0  0  0  0  0  0  0
   50.8177  108.4186   16.4408 O   0  0  0  0  0  0  0  0  0  0  0  0
   55.1586  114.3974   21.2635 N   0  0  0  0  0  0  0  0  0  0  0  0
   55.6879  115.3051   22.2486 C   0  0  2  0  0  0  0  0  0  0  0  0
   54.8710  116.5138   22.3920 C   0  0  0  0  0  0  0  0  0  0  0  0
   54.2676  116.9047   21.3725 O   0  0  0  0  0  0  0  0  0  0  0  0
   57.1313  115.7008   22.0702 C   0  0  0  0  0  0  0  0  0  0  0  0
   58.0961  114.5888   22.1891 C   0  0  0  0  0  0  0  0  0  0  0  0
   59.2968  114.6861   21.8509 O   0  0  0  0  0  0  0  0  0  0  0  0
   57.6817  113.3658   22.6979 O   0  0  0  0  0  0  0  0  0  0  0  0
   54.7130  117.2613   23.5603 N   0  0  0  0  0  0  0  0  0  0  0  0
   54.2007  118.5450   23.8122 C   0  0  2  0  0  0  0  0  0  0  0  0
   54.5010  119.6226   22.8513 C   0  0  0  0  0  0  0  0  0  0  0  0
   54.7076  120.8000   23.2111 O   0  0  0  0  0  0  0  0  0  0  0  0
   54.2905  119.0154   25.2168 C   0  0  0  0  0  0  0  0  0  0  0  0
   53.8903  118.0145   26.2518 C   0  0  1  0  0  0  0  0  0  0  0  0
   53.9972  118.4064   27.6680 C   0  0  0  0  0  0  0  0  0  0  0  0
   52.4698  117.4893   26.0105 C   0  0  0  0  0  0  0  0  0  0  0  0
   54.5774  119.3922   21.4559 N   0  0  0  0  0  0  0  0  0  0  0  0
   54.4372  120.5130   20.5575 C   0  0  2  0  0  0  0  0  0  0  0  0
   53.2259  120.2480   19.7095 C   0  0  0  0  0  0  0  0  0  0  0  0
   53.1135  120.7852   18.4375 O   0  0  0  0  0  0  0  0  0  0  0  0
   55.5946  120.7453   19.6499 C   0  0  0  0  0  0  0  0  0  0  0  0
   56.8364  120.0463   20.0459 C   0  0  0  0  0  0  0  0  0  0  0  0
   57.5687  120.4901   20.9636 O   0  0  0  0  0  0  0  0  0  0  0  0
   57.2674  118.8443   19.4169 N   0  0  0  0  0  0  0  0  0  0  0  0
   52.2845  119.5305   20.1342 O   0  0  0  0  0  0  0  0  0  0  0  0
  2  1  1  6
  2  3  1  0
  2  5  1  0
  3  4  2  0
  3 10  1  0
  5  6  1  0
  6  7  1  0
  7  8  2  0
  7  9  1  0
 10 11  1  0
 11 12  1  0
 11 14  1  1
 12 13  2  0
 12 18  1  0
 14 15  1  0
 15 16  1  0
 15 17  2  0
 18 19  1  0
 18 24  1  0
 19 20  1  1
 19 22  1  0
 20 21  2  0
 20 25  1  0
 22 23  1  0
 23 24  1  0
 25 26  1  0
 26 27  1  0
 26 29  1  1
 27 28  2  0
 27 37  1  0
 29 30  1  0
 30 31  2  0
 30 32  1  0
 31 33  1  0
 32 34  2  0
 33 35  2  0
 34 35  1  0
 35 36  1  0
 37 38  1  0
 38 39  1  0
 38 41  1  6
 39 40  2  0
 39 45  1  0
 41 42  1  0
 42 43  2  0
 42 44  1  0
 45 46  1  0
 46 47  1  0
 46 49  1  1
 47 48  2  0
 47 53  1  0
 49 50  1  0
 50 51  1  1
 50 52  1  0
 53 54  1  0
 54 55  1  0
 54 57  1  6
 55 56  1  0
 55 61  2  0
 57 58  1  0
 58 59  2  0
 58 60  1  0
M  CHG  1   1   1
M  END
$$$$
