
     RDKit          3D

 61 62  0  0  0  0  0  0  0  0999 V2000
   58.1459  120.1496   19.1379 N   0  0  0  0  0  4  0  0  0  0  0  0
   59.2409  119.7760   18.2976 C   0  0  2  0  0  0  0  0  0  0  0  0
   59.5534  118.3404   18.5688 C   0  0  0  0  0  0  0  0  0  0  0  0
   58.9516  117.7462   19.4859 O   0  0  0  0  0  0  0  0  0  0  0  0
   60.4261  120.6451   18.4995 C   0  0  0  0  0  0  0  0  0  0  0  0
   61.5687  120.5224   17.5713 C   0  0  0  0  0  0  0  0  0  0  0  0
   61.2781  120.9667   16.2193 C   0  0  0  0  0  0  0  0  0  0  0  0
   61.3002  120.0798   15.2947 O   0  0  0  0  0  0  0  0  0  0  0  0
   60.9789  122.2657   15.8224 O   0  0  0  0  0  0  0  0  0  0  0  0
   60.5194  117.6444   17.8007 N   0  0  0  0  0  0  0  0  0  0  0  0
   60.5969  116.2315   17.9528 C   0  0  2  0  0  0  0  0  0  0  0  0
   59.6715  115.4165   17.1411 C   0  0  0  0  0  0  0  0  0  0  0  0
   58.4242  115.4100   17.5077 O   0  0  0  0  0  0  0  0  0  0  0  0
   60.5264  115.7896   19.4032 C   0  0  0  0  0  0  0  0  0  0  0  0
   60.6864  114.3441   19.5623 C   0  0  0  0  0  0  0  0  0  0  0  0
   61.4037  113.5717   18.6719 O   0  0  0  0  0  0  0  0  0  0  0  0
   60.1627  113.7565   20.5364 O   0  0  0  0  0  0  0  0  0  0  0  0
   59.9593  114.6344   16.0093 N   0  0  0  0  0  0  0  0  0  0  0  0
   59.0299  113.8714   15.2277 C   0  0  2  0  0  0  0  0  0  0  0  0
   58.0101  113.1223   15.9768 C   0  0  0  0  0  0  0  0  0  0  0  0
   56.9161  112.8452   15.4350 O   0  0  0  0  0  0  0  0  0  0  0  0
   59.8688  112.9422   14.3628 C   0  0  0  0  0  0  0  0  0  0  0  0
   61.2603  112.9846   14.9730 C   0  0  0  0  0  0  0  0  0  0  0  0
   61.3110  114.4416   15.4577 C   0  0  0  0  0  0  0  0  0  0  0  0
   58.2166  112.6910   17.3146 N   0  0  0  0  0  0  0  0  0  0  0  0
   57.5355  111.6116   17.9625 C   0  0  2  0  0  0  0  0  0  0  0  0
   56.3384  112.1058   18.7155 C   0  0  0  0  0  0  0  0  0  0  0  0
   55.5592  111.2561   19.2548 O   0  0  0  0  0  0  0  0  0  0  0  0
   58.5212  110.8858   18.8445 C   0  0  0  0  0  0  0  0  0  0  0  0
   59.3048  109.8482   18.1340 C   0  0  0  0  0  0  0  0  0  0  0  0
   60.2540  109.1047   18.8002 C   0  0  0  0  0  0  0  0  0  0  0  0
   59.1170  109.6138   16.7955 C   0  0  0  0  0  0  0  0  0  0  0  0
   61.0315  108.1302   18.1848 C   0  0  0  0  0  0  0  0  0  0  0  0
   59.8614  108.6591   16.1388 C   0  0  0  0  0  0  0  0  0  0  0  0
   60.8079  107.9315   16.8439 C   0  0  0  0  0  0  0  0  0  0  0  0
   61.5175  106.9870   16.1127 O   0  0  0  0  0  0  0  0  0  0  0  0
   56.0886  113.4576   18.8240 N   0  0  0  0  0  0  0  0  0  0  0  0
   55.0056  114.1327   19.4918 C   0  0  2  0  0  0  0  0  0  0  0  0
   53.7118  113.8887   18.8472 C   0  0  0  0  0  0  0  0  0  0  0  0
   53.7027  113.0736   17.9029 O   0  0  0  0  0  0  0  0  0  0  0  0
   55.1834  115.6148   19.7007 C   0  0  0  0  0  0  0  0  0  0  0  0
   56.2255  115.9799   20.6815 C   0  0  0  0  0  0  0  0  0  0  0  0
   57.1349  116.8043   20.4383 O   0  0  0  0  0  0  0  0  0  0  0  0
   56.2220  115.3991   21.9421 O   0  0  0  0  0  0  0  0  0  0  0  0
   52.4988  114.4865   19.1938 N   0  0  0  0  0  0  0  0  0  0  0  0
   51.1752  114.0166   19.2231 C   0  0  2  0  0  0  0  0  0  0  0  0
   50.2050  114.7025   20.0966 C   0  0  0  0  0  0  0  0  0  0  0  0
   49.0638  114.2460   20.3153 O   0  0  0  0  0  0  0  0  0  0  0  0
   51.0107  112.5423   19.2641 C   0  0  0  0  0  0  0  0  0  0  0  0
   49.6046  112.0533   19.1346 C   0  0  1  0  0  0  0  0  0  0  0  0
   49.3825  110.5976   19.0843 C   0  0  0  0  0  0  0  0  0  0  0  0
   48.7013  112.6338   20.2295 C   0  0  0  0  0  0  0  0  0  0  0  0
   50.5050  115.9241   20.7477 N   0  0  0  0  0  0  0  0  0  0  0  0
   49.4170  116.7387   21.2330 C   0  0  2  0  0  0  0  0  0  0  0  0
   49.3463  117.9505   20.3481 C   0  0  0  0  0  0  0  0  0  0  0  0
   50.4013  118.8458   20.2778 O   0  0  0  0  0  0  0  0  0  0  0  0
   49.5529  117.2026   22.6414 C   0  0  0  0  0  0  0  0  0  0  0  0
   50.6265  116.5337   23.4081 C   0  0  0  0  0  0  0  0  0  0  0  0
   50.9795  115.3586   23.1440 O   0  0  0  0  0  0  0  0  0  0  0  0
   51.3130  117.1766   24.4765 N   0  0  0  0  0  0  0  0  0  0  0  0
   48.3272  118.1807   19.6483 O   0  0  0  0  0  0  0  0  0  0  0  0
  2  1  1  1
  2  3  1  0
  2  5  1  0
  3  4  2  0
  3 10  1  0
  5  6  1  0
  6  7  1  0
  7  8  2  0
  7  9  1  0
 10 11  1  0
 11 12  1  0
 11 14  1  1
 12 13  2  0
 12 18  1  0
 14 15  1  0
 15 16  1  0
 15 17  2  0
 18 19  1  0
 18 24  1  0
 19 20  1  1
 19 22  1  0
 20 21  2  0
 20 25  1  0
 22 23  1  0
 23 24  1  0
 25 26  1  0
 26 27  1  0
 26 29  1  1
 27 28  2  0
 27 37  1  0
 29 30  1  0
 30 31  2  0
 30 32  1  0
 31 33  1  0
 32 34  2  0
 33 35  2  0
 34 35  1  0
 35 36  1  0
 37 38  1  0
 38 39  1  0
 38 41  1  6
 39 40  2  0
 39 45  1  0
 41 42  1  0
 42 43  2  0
 42 44  1  0
 45 46  1  0
 46 47  1  0
 46 49  1  1
 47 48  2  0
 47 53  1  0
 49 50  1  0
 50 51  1  1
 50 52  1  0
 53 54  1  0
 54 55  1  0
 54 57  1  1
 55 56  1  0
 55 61  2  0
 57 58  1  0
 58 59  2  0
 58 60  1  0
M  CHG  1   1   1
M  END
$$$$
