
     RDKit          3D

 61 62  0  0  0  0  0  0  0  0999 V2000
   61.1707  120.4088   19.8376 N   0  0  0  0  0  4  0  0  0  0  0  0
   60.0635  119.5308   19.6183 C   0  0  2  0  0  0  0  0  0  0  0  0
   60.5528  118.3755   18.8072 C   0  0  0  0  0  0  0  0  0  0  0  0
   61.1675  118.5917   17.7434 O   0  0  0  0  0  0  0  0  0  0  0  0
   58.9223  120.2178   18.9653 C   0  0  0  0  0  0  0  0  0  0  0  0
   57.6972  119.4464   18.6713 C   0  0  0  0  0  0  0  0  0  0  0  0
   56.6580  120.2210   18.0158 C   0  0  0  0  0  0  0  0  0  0  0  0
   56.2635  119.8155   16.8661 O   0  0  0  0  0  0  0  0  0  0  0  0
   56.0450  121.3673   18.5105 O   0  0  0  0  0  0  0  0  0  0  0  0
   60.3316  117.0406   19.2279 N   0  0  0  0  0  0  0  0  0  0  0  0
   60.8511  115.9934   18.4162 C   0  0  2  0  0  0  0  0  0  0  0  0
   60.0643  115.6120   17.2267 C   0  0  0  0  0  0  0  0  0  0  0  0
   58.7772  115.5166   17.3839 O   0  0  0  0  0  0  0  0  0  0  0  0
   61.2057  114.7507   19.2123 C   0  0  0  0  0  0  0  0  0  0  0  0
   61.6761  113.6529   18.3672 C   0  0  0  0  0  0  0  0  0  0  0  0
   62.0017  112.4109   18.8725 O   0  0  0  0  0  0  0  0  0  0  0  0
   61.7978  113.8176   17.1316 O   0  0  0  0  0  0  0  0  0  0  0  0
   60.5236  115.3330   15.9280 N   0  0  0  0  0  0  0  0  0  0  0  0
   59.7238  115.0685   14.7673 C   0  0  2  0  0  0  0  0  0  0  0  0
   58.5530  114.2016   14.9670 C   0  0  0  0  0  0  0  0  0  0  0  0
   57.7719  113.9789   14.0144 O   0  0  0  0  0  0  0  0  0  0  0  0
   60.6689  114.4838   13.7278 C   0  0  0  0  0  0  0  0  0  0  0  0
   61.9241  114.1127   14.5006 C   0  0  0  0  0  0  0  0  0  0  0  0
   61.9448  115.2281   15.5569 C   0  0  0  0  0  0  0  0  0  0  0  0
   58.2643  113.5940   16.2183 N   0  0  0  0  0  0  0  0  0  0  0  0
   57.3944  112.4768   16.4274 C   0  0  2  0  0  0  0  0  0  0  0  0
   56.2481  112.8469   17.3181 C   0  0  0  0  0  0  0  0  0  0  0  0
   55.0669  112.5393   16.9575 O   0  0  0  0  0  0  0  0  0  0  0  0
   58.2110  111.3312   16.9727 C   0  0  0  0  0  0  0  0  0  0  0  0
   57.4114  110.1216   17.2771 C   0  0  0  0  0  0  0  0  0  0  0  0
   57.3760  109.6049   18.5537 C   0  0  0  0  0  0  0  0  0  0  0  0
   56.7017  109.4780   16.2953 C   0  0  0  0  0  0  0  0  0  0  0  0
   56.6586  108.4645   18.8968 C   0  0  0  0  0  0  0  0  0  0  0  0
   55.9745  108.3443   16.5833 C   0  0  0  0  0  0  0  0  0  0  0  0
   55.9642  107.8546   17.8804 C   0  0  0  0  0  0  0  0  0  0  0  0
   55.2075  106.7087   18.0918 O   0  0  0  0  0  0  0  0  0  0  0  0
   56.4711  113.5065   18.5085 N   0  0  0  0  0  0  0  0  0  0  0  0
   55.5201  113.9545   19.4931 C   0  0  2  0  0  0  0  0  0  0  0  0
   54.1528  114.0072   18.9674 C   0  0  0  0  0  0  0  0  0  0  0  0
   53.8772  113.2123   18.0462 O   0  0  0  0  0  0  0  0  0  0  0  0
   55.8413  115.2621   20.1705 C   0  0  0  0  0  0  0  0  0  0  0  0
   57.2740  115.6209   20.1735 C   0  0  0  0  0  0  0  0  0  0  0  0
   57.6829  116.8034   20.1863 O   0  0  0  0  0  0  0  0  0  0  0  0
   58.2368  114.6212   20.1636 O   0  0  0  0  0  0  0  0  0  0  0  0
   53.1408  114.8646   19.4025 N   0  0  0  0  0  0  0  0  0  0  0  0
   51.7808  114.9842   19.0715 C   0  0  2  0  0  0  0  0  0  0  0  0
   50.9804  116.0200   19.7507 C   0  0  0  0  0  0  0  0  0  0  0  0
   49.7859  116.2380   19.4610 O   0  0  0  0  0  0  0  0  0  0  0  0
   51.0326  113.7103   18.9316 C   0  0  0  0  0  0  0  0  0  0  0  0
   51.5102  112.8060   17.8421 C   0  0  1  0  0  0  0  0  0  0  0  0
   50.8456  111.5001   17.6885 C   0  0  0  0  0  0  0  0  0  0  0  0
   51.4977  113.5083   16.4787 C   0  0  0  0  0  0  0  0  0  0  0  0
   51.5139  116.8349   20.7790 N   0  0  0  0  0  0  0  0  0  0  0  0
   50.6179  117.3766   21.7722 C   0  0  2  0  0  0  0  0  0  0  0  0
   50.8028  118.8674   21.7649 C   0  0  0  0  0  0  0  0  0  0  0  0
   51.7380  119.4748   22.5870 O   0  0  0  0  0  0  0  0  0  0  0  0
   50.8437  116.8900   23.1612 C   0  0  0  0  0  0  0  0  0  0  0  0
   49.8656  117.3868   24.1533 C   0  0  0  0  0  0  0  0  0  0  0  0
   49.9807  118.5265   24.6663 O   0  0  0  0  0  0  0  0  0  0  0  0
   48.7507  116.6104   24.5782 N   0  0  0  0  0  0  0  0  0  0  0  0
   50.1132  119.6001   21.0107 O   0  0  0  0  0  0  0  0  0  0  0  0
  2  1  1  6
  2  3  1  0
  2  5  1  0
  3  4  2  0
  3 10  1  0
  5  6  1  0
  6  7  1  0
  7  8  2  0
  7  9  1  0
 10 11  1  0
 11 12  1  0
 11 14  1  1
 12 13  2  0
 12 18  1  0
 14 15  1  0
 15 16  1  0
 15 17  2  0
 18 19  1  0
 18 24  1  0
 19 20  1  1
 19 22  1  0
 20 21  2  0
 20 25  1  0
 22 23  1  0
 23 24  1  0
 25 26  1  0
 26 27  1  0
 26 29  1  1
 27 28  2  0
 27 37  1  0
 29 30  1  0
 30 31  2  0
 30 32  1  0
 31 33  1  0
 32 34  2  0
 33 35  2  0
 34 35  1  0
 35 36  1  0
 37 38  1  0
 38 39  1  0
 38 41  1  6
 39 40  2  0
 39 45  1  0
 41 42  1  0
 42 43  2  0
 42 44  1  0
 45 46  1  0
 46 47  1  0
 46 49  1  1
 47 48  2  0
 47 53  1  0
 49 50  1  0
 50 51  1  6
 50 52  1  0
 53 54  1  0
 54 55  1  0
 54 57  1  1
 55 56  1  0
 55 61  2  0
 57 58  1  0
 58 59  2  0
 58 60  1  0
M  CHG  1   1   1
M  END
$$$$
