
     RDKit          3D

 61 62  0  0  0  0  0  0  0  0999 V2000
   59.8125  118.9790   15.3065 N   0  0  0  0  0  4  0  0  0  0  0  0
   59.2209  118.4449   16.4937 C   0  0  2  0  0  0  0  0  0  0  0  0
   59.1114  116.9649   16.3212 C   0  0  0  0  0  0  0  0  0  0  0  0
   58.9262  116.4941   15.1809 O   0  0  0  0  0  0  0  0  0  0  0  0
   57.9061  119.0629   16.7935 C   0  0  0  0  0  0  0  0  0  0  0  0
   57.8635  120.4695   17.2429 C   0  0  0  0  0  0  0  0  0  0  0  0
   58.0366  120.6343   18.6757 C   0  0  0  0  0  0  0  0  0  0  0  0
   59.0593  121.2987   19.0686 O   0  0  0  0  0  0  0  0  0  0  0  0
   57.2015  120.1389   19.6716 O   0  0  0  0  0  0  0  0  0  0  0  0
   59.2165  116.0895   17.4304 N   0  0  0  0  0  0  0  0  0  0  0  0
   59.0377  114.6970   17.1971 C   0  0  2  0  0  0  0  0  0  0  0  0
   57.6658  114.1658   17.3203 C   0  0  0  0  0  0  0  0  0  0  0  0
   56.9981  114.5132   18.3804 O   0  0  0  0  0  0  0  0  0  0  0  0
   59.9916  113.8364   18.0052 C   0  0  0  0  0  0  0  0  0  0  0  0
   59.9372  114.1247   19.4386 C   0  0  0  0  0  0  0  0  0  0  0  0
   59.0520  115.0327   19.9825 O   0  0  0  0  0  0  0  0  0  0  0  0
   60.7131  113.5390   20.2281 O   0  0  0  0  0  0  0  0  0  0  0  0
   56.9727  113.3225   16.4349 N   0  0  0  0  0  0  0  0  0  0  0  0
   55.6115  112.8850   16.5462 C   0  0  2  0  0  0  0  0  0  0  0  0
   55.1582  112.5031   17.8920 C   0  0  0  0  0  0  0  0  0  0  0  0
   54.2648  113.1696   18.4618 O   0  0  0  0  0  0  0  0  0  0  0  0
   55.4578  111.7304   15.5670 C   0  0  0  0  0  0  0  0  0  0  0  0
   56.8781  111.3368   15.1953 C   0  0  0  0  0  0  0  0  0  0  0  0
   57.5706  112.7076   15.2378 C   0  0  0  0  0  0  0  0  0  0  0  0
   55.7008  111.3891   18.5869 N   0  0  0  0  0  0  0  0  0  0  0  0
   55.7602  111.2353   20.0087 C   0  0  2  0  0  0  0  0  0  0  0  0
   54.9847  112.3150   20.6993 C   0  0  0  0  0  0  0  0  0  0  0  0
   54.3320  112.0238   21.7525 O   0  0  0  0  0  0  0  0  0  0  0  0
   57.2100  111.2004   20.4250 C   0  0  0  0  0  0  0  0  0  0  0  0
   57.9077  109.9485   20.0493 C   0  0  0  0  0  0  0  0  0  0  0  0
   57.2302  108.7495   20.0131 C   0  0  0  0  0  0  0  0  0  0  0  0
   59.2453  109.9489   19.7451 C   0  0  0  0  0  0  0  0  0  0  0  0
   57.8335  107.5407   19.6849 C   0  0  0  0  0  0  0  0  0  0  0  0
   59.8902  108.7780   19.4132 C   0  0  0  0  0  0  0  0  0  0  0  0
   59.1739  107.5911   19.3883 C   0  0  0  0  0  0  0  0  0  0  0  0
   59.8935  106.4536   19.0438 O   0  0  0  0  0  0  0  0  0  0  0  0
   54.9818  113.6017   20.2031 N   0  0  0  0  0  0  0  0  0  0  0  0
   54.3571  114.7832   20.7401 C   0  0  2  0  0  0  0  0  0  0  0  0
   53.0978  115.1073   20.0633 C   0  0  0  0  0  0  0  0  0  0  0  0
   53.0652  116.1797   19.4269 O   0  0  0  0  0  0  0  0  0  0  0  0
   55.2214  116.0168   20.7955 C   0  0  0  0  0  0  0  0  0  0  0  0
   54.5926  117.1830   21.4481 C   0  0  0  0  0  0  0  0  0  0  0  0
   53.4000  117.1945   21.8265 O   0  0  0  0  0  0  0  0  0  0  0  0
   55.3345  118.3354   21.6675 O   0  0  0  0  0  0  0  0  0  0  0  0
   51.9399  114.3275   20.0712 N   0  0  0  0  0  0  0  0  0  0  0  0
   50.6522  114.5226   19.5448 C   0  0  2  0  0  0  0  0  0  0  0  0
   49.8359  115.6299   20.0762 C   0  0  0  0  0  0  0  0  0  0  0  0
   48.8165  116.0493   19.4903 O   0  0  0  0  0  0  0  0  0  0  0  0
   49.8464  113.2952   19.3294 C   0  0  0  0  0  0  0  0  0  0  0  0
   50.4726  112.2681   18.4430 C   0  0  1  0  0  0  0  0  0  0  0  0
   49.5810  111.3407   17.7248 C   0  0  0  0  0  0  0  0  0  0  0  0
   51.4181  112.9068   17.4182 C   0  0  0  0  0  0  0  0  0  0  0  0
   50.1535  116.2895   21.2888 N   0  0  0  0  0  0  0  0  0  0  0  0
   49.2739  117.3297   21.7653 C   0  0  2  0  0  0  0  0  0  0  0  0
   49.7787  118.6262   21.1989 C   0  0  0  0  0  0  0  0  0  0  0  0
   51.0676  118.7348   20.7026 O   0  0  0  0  0  0  0  0  0  0  0  0
   49.2027  117.4693   23.2461 C   0  0  0  0  0  0  0  0  0  0  0  0
   48.9142  116.2115   23.9690 C   0  0  0  0  0  0  0  0  0  0  0  0
   49.3155  115.1045   23.5346 O   0  0  0  0  0  0  0  0  0  0  0  0
   48.1738  116.1845   25.1844 N   0  0  0  0  0  0  0  0  0  0  0  0
   49.0421  119.6446   21.1605 O   0  0  0  0  0  0  0  0  0  0  0  0
  2  1  1  6
  2  3  1  0
  2  5  1  0
  3  4  2  0
  3 10  1  0
  5  6  1  0
  6  7  1  0
  7  8  2  0
  7  9  1  0
 10 11  1  0
 11 12  1  0
 11 14  1  1
 12 13  2  0
 12 18  1  0
 14 15  1  0
 15 16  1  0
 15 17  2  0
 18 19  1  0
 18 24  1  0
 19 20  1  1
 19 22  1  0
 20 21  2  0
 20 25  1  0
 22 23  1  0
 23 24  1  0
 25 26  1  0
 26 27  1  0
 26 29  1  1
 27 28  2  0
 27 37  1  0
 29 30  1  0
 30 31  2  0
 30 32  1  0
 31 33  1  0
 32 34  2  0
 33 35  2  0
 34 35  1  0
 35 36  1  0
 37 38  1  0
 38 39  1  0
 38 41  1  6
 39 40  2  0
 39 45  1  0
 41 42  1  0
 42 43  2  0
 42 44  1  0
 45 46  1  0
 46 47  1  0
 46 49  1  1
 47 48  2  0
 47 53  1  0
 49 50  1  0
 50 51  1  6
 50 52  1  0
 53 54  1  0
 54 55  1  0
 54 57  1  1
 55 56  1  0
 55 61  2  0
 57 58  1  0
 58 59  2  0
 58 60  1  0
M  CHG  1   1   1
M  END
$$$$
