
     RDKit          3D

 61 62  0  0  0  0  0  0  0  0999 V2000
   57.6095  120.1629   16.4761 N   0  0  0  0  0  4  0  0  0  0  0  0
   58.7262  119.3091   16.7379 C   0  0  2  0  0  0  0  0  0  0  0  0
   58.2010  117.9280   16.9589 C   0  0  0  0  0  0  0  0  0  0  0  0
   57.5928  117.6669   18.0164 O   0  0  0  0  0  0  0  0  0  0  0  0
   59.5365  119.7805   17.8877 C   0  0  0  0  0  0  0  0  0  0  0  0
   59.4814  121.2081   18.2633 C   0  0  0  0  0  0  0  0  0  0  0  0
   60.7697  121.8776   18.2197 C   0  0  0  0  0  0  0  0  0  0  0  0
   61.2987  122.2017   19.3409 O   0  0  0  0  0  0  0  0  0  0  0  0
   61.4916  122.2075   17.0775 O   0  0  0  0  0  0  0  0  0  0  0  0
   58.3810  116.9128   15.9871 N   0  0  0  0  0  0  0  0  0  0  0  0
   59.7136  116.5604   15.6332 C   0  0  2  0  0  0  0  0  0  0  0  0
   60.4131  115.6058   16.5158 C   0  0  0  0  0  0  0  0  0  0  0  0
   60.5674  115.9629   17.7563 O   0  0  0  0  0  0  0  0  0  0  0  0
   60.5980  117.7692   15.3876 C   0  0  0  0  0  0  0  0  0  0  0  0
   60.6430  118.1600   13.9784 C   0  0  0  0  0  0  0  0  0  0  0  0
   60.1452  117.3627   12.9682 O   0  0  0  0  0  0  0  0  0  0  0  0
   61.1476  119.2568   13.6454 O   0  0  0  0  0  0  0  0  0  0  0  0
   60.9437  114.3450   16.1930 N   0  0  0  0  0  0  0  0  0  0  0  0
   60.3703  113.3654   15.3163 C   0  0  2  0  0  0  0  0  0  0  0  0
   58.9172  113.1671   15.4231 C   0  0  0  0  0  0  0  0  0  0  0  0
   58.2414  112.9393   14.3942 O   0  0  0  0  0  0  0  0  0  0  0  0
   61.1223  112.0695   15.5820 C   0  0  0  0  0  0  0  0  0  0  0  0
   61.8694  112.3070   16.8843 C   0  0  0  0  0  0  0  0  0  0  0  0
   62.1925  113.8034   16.7549 C   0  0  0  0  0  0  0  0  0  0  0  0
   58.2339  113.2237   16.6673 N   0  0  0  0  0  0  0  0  0  0  0  0
   56.8284  113.0349   16.8617 C   0  0  2  0  0  0  0  0  0  0  0  0
   56.3982  113.5417   18.2042 C   0  0  0  0  0  0  0  0  0  0  0  0
   56.2875  112.7149   19.1655 O   0  0  0  0  0  0  0  0  0  0  0  0
   56.5104  111.5739   16.6600 C   0  0  0  0  0  0  0  0  0  0  0  0
   57.6071  110.8080   16.0229 C   0  0  0  0  0  0  0  0  0  0  0  0
   58.7536  111.4426   15.5982 C   0  0  0  0  0  0  0  0  0  0  0  0
   57.5018  109.4545   15.8255 C   0  0  0  0  0  0  0  0  0  0  0  0
   59.8083  110.7813   14.9791 C   0  0  0  0  0  0  0  0  0  0  0  0
   58.5189  108.7526   15.2172 C   0  0  0  0  0  0  0  0  0  0  0  0
   59.6572  109.4272   14.8030 C   0  0  0  0  0  0  0  0  0  0  0  0
   60.6383  108.6508   14.1989 O   0  0  0  0  0  0  0  0  0  0  0  0
   56.1304  114.8811   18.3939 N   0  0  0  0  0  0  0  0  0  0  0  0
   55.3197  115.5136   19.4026 C   0  0  2  0  0  0  0  0  0  0  0  0
   53.9646  114.9575   19.4613 C   0  0  0  0  0  0  0  0  0  0  0  0
   53.1902  115.2736   18.5357 O   0  0  0  0  0  0  0  0  0  0  0  0
   55.2357  117.0168   19.3318 C   0  0  0  0  0  0  0  0  0  0  0  0
   54.4501  117.6435   20.4142 C   0  0  0  0  0  0  0  0  0  0  0  0
   54.1552  117.0512   21.4763 O   0  0  0  0  0  0  0  0  0  0  0  0
   54.0048  118.9509   20.2771 O   0  0  0  0  0  0  0  0  0  0  0  0
   53.4683  114.1137   20.4565 N   0  0  0  0  0  0  0  0  0  0  0  0
   52.1974  113.5672   20.7006 C   0  0  2  0  0  0  0  0  0  0  0  0
   51.0992  114.4794   21.0702 C   0  0  0  0  0  0  0  0  0  0  0  0
   50.4083  114.3117   22.0964 O   0  0  0  0  0  0  0  0  0  0  0  0
   52.1711  112.3173   21.5000 C   0  0  0  0  0  0  0  0  0  0  0  0
   52.5787  111.0814   20.7657 C   0  0  1  0  0  0  0  0  0  0  0  0
   52.6347  109.8173   21.5205 C   0  0  0  0  0  0  0  0  0  0  0  0
   51.7134  110.8527   19.5203 C   0  0  0  0  0  0  0  0  0  0  0  0
   50.7570  115.6083   20.2861 N   0  0  0  0  0  0  0  0  0  0  0  0
   49.6886  116.4684   20.7347 C   0  0  2  0  0  0  0  0  0  0  0  0
   49.5931  117.6003   19.7518 C   0  0  0  0  0  0  0  0  0  0  0  0
   49.0875  117.3989   18.4778 O   0  0  0  0  0  0  0  0  0  0  0  0
   49.8724  117.0504   22.0929 C   0  0  0  0  0  0  0  0  0  0  0  0
   51.2280  117.5804   22.3563 C   0  0  0  0  0  0  0  0  0  0  0  0
   52.2009  116.8116   22.5504 O   0  0  0  0  0  0  0  0  0  0  0  0
   51.5039  118.9761   22.4042 N   0  0  0  0  0  0  0  0  0  0  0  0
   49.9692  118.7593   20.0628 O   0  0  0  0  0  0  0  0  0  0  0  0
  2  1  1  1
  2  3  1  0
  2  5  1  0
  3  4  2  0
  3 10  1  0
  5  6  1  0
  6  7  1  0
  7  8  2  0
  7  9  1  0
 10 11  1  0
 11 12  1  0
 11 14  1  1
 12 13  2  0
 12 18  1  0
 14 15  1  0
 15 16  1  0
 15 17  2  0
 18 19  1  0
 18 24  1  0
 19 20  1  1
 19 22  1  0
 20 21  2  0
 20 25  1  0
 22 23  1  0
 23 24  1  0
 25 26  1  0
 26 27  1  0
 26 29  1  1
 27 28  2  0
 27 37  1  0
 29 30  1  0
 30 31  2  0
 30 32  1  0
 31 33  1  0
 32 34  2  0
 33 35  2  0
 34 35  1  0
 35 36  1  0
 37 38  1  0
 38 39  1  0
 38 41  1  6
 39 40  2  0
 39 45  1  0
 41 42  1  0
 42 43  2  0
 42 44  1  0
 45 46  1  0
 46 47  1  0
 46 49  1  1
 47 48  2  0
 47 53  1  0
 49 50  1  0
 50 51  1  1
 50 52  1  0
 53 54  1  0
 54 55  1  0
 54 57  1  1
 55 56  1  0
 55 61  2  0
 57 58  1  0
 58 59  2  0
 58 60  1  0
M  CHG  1   1   1
M  END
$$$$
