
     RDKit          3D

 61 62  0  0  0  0  0  0  0  0999 V2000
   62.4293  119.1220   11.4765 N   0  0  0  0  0  4  0  0  0  0  0  0
   61.1491  118.9866   12.0990 C   0  0  2  0  0  0  0  0  0  0  0  0
   61.3315  118.1811   13.3440 C   0  0  0  0  0  0  0  0  0  0  0  0
   62.2200  117.3061   13.3817 O   0  0  0  0  0  0  0  0  0  0  0  0
   60.1448  118.3787   11.1922 C   0  0  0  0  0  0  0  0  0  0  0  0
   58.7454  118.2622   11.6511 C   0  0  0  0  0  0  0  0  0  0  0  0
   57.9064  119.3850   11.2699 C   0  0  0  0  0  0  0  0  0  0  0  0
   58.1236  119.9148   10.1236 O   0  0  0  0  0  0  0  0  0  0  0  0
   56.8863  119.9495   12.0283 O   0  0  0  0  0  0  0  0  0  0  0  0
   60.5140  118.3967   14.4810 N   0  0  0  0  0  0  0  0  0  0  0  0
   60.8399  117.6963   15.6763 C   0  0  2  0  0  0  0  0  0  0  0  0
   60.3683  116.3018   15.7877 C   0  0  0  0  0  0  0  0  0  0  0  0
   59.1900  116.0434   15.3027 O   0  0  0  0  0  0  0  0  0  0  0  0
   60.4632  118.4632   16.9307 C   0  0  0  0  0  0  0  0  0  0  0  0
   60.9333  119.8485   16.9090 C   0  0  0  0  0  0  0  0  0  0  0  0
   60.5894  120.7670   17.8797 O   0  0  0  0  0  0  0  0  0  0  0  0
   61.6793  120.2454   15.9847 O   0  0  0  0  0  0  0  0  0  0  0  0
   61.0289  115.1988   16.3556 N   0  0  0  0  0  0  0  0  0  0  0  0
   60.4930  113.8852   16.5650 C   0  0  2  0  0  0  0  0  0  0  0  0
   59.1110  113.8174   17.0629 C   0  0  0  0  0  0  0  0  0  0  0  0
   58.6919  114.6866   17.8605 O   0  0  0  0  0  0  0  0  0  0  0  0
   61.4535  113.1838   17.5142 C   0  0  0  0  0  0  0  0  0  0  0  0
   62.3237  114.2919   18.0845 C   0  0  0  0  0  0  0  0  0  0  0  0
   62.4062  115.2359   16.8753 C   0  0  0  0  0  0  0  0  0  0  0  0
   58.2135  112.7884   16.6705 N   0  0  0  0  0  0  0  0  0  0  0  0
   57.0236  112.4030   17.3664 C   0  0  2  0  0  0  0  0  0  0  0  0
   56.7719  113.3002   18.5393 C   0  0  0  0  0  0  0  0  0  0  0  0
   57.5503  113.2296   19.5439 O   0  0  0  0  0  0  0  0  0  0  0  0
   57.1485  110.9512   17.7580 C   0  0  0  0  0  0  0  0  0  0  0  0
   57.2431  110.0285   16.6027 C   0  0  0  0  0  0  0  0  0  0  0  0
   58.4668  109.5675   16.1694 C   0  0  0  0  0  0  0  0  0  0  0  0
   56.1196  109.6243   15.9273 C   0  0  0  0  0  0  0  0  0  0  0  0
   58.6206  108.7146   15.0822 C   0  0  0  0  0  0  0  0  0  0  0  0
   56.2177  108.7797   14.8437 C   0  0  0  0  0  0  0  0  0  0  0  0
   57.4675  108.3376   14.4375 C   0  0  0  0  0  0  0  0  0  0  0  0
   57.4844  107.4882   13.3382 O   0  0  0  0  0  0  0  0  0  0  0  0
   55.7169  114.1882   18.5279 N   0  0  0  0  0  0  0  0  0  0  0  0
   54.9725  114.7322   19.6345 C   0  0  2  0  0  0  0  0  0  0  0  0
   53.5372  114.4511   19.5356 C   0  0  0  0  0  0  0  0  0  0  0  0
   53.0069  114.6362   18.4216 O   0  0  0  0  0  0  0  0  0  0  0  0
   55.1722  116.2018   19.9025 C   0  0  0  0  0  0  0  0  0  0  0  0
   54.6660  116.6658   21.2102 C   0  0  0  0  0  0  0  0  0  0  0  0
   53.8260  117.5853   21.3313 O   0  0  0  0  0  0  0  0  0  0  0  0
   55.1237  116.0724   22.3784 O   0  0  0  0  0  0  0  0  0  0  0  0
   52.7179  114.0003   20.5721 N   0  0  0  0  0  0  0  0  0  0  0  0
   51.3632  113.6326   20.6292 C   0  0  2  0  0  0  0  0  0  0  0  0
   50.3673  114.6681   20.9617 C   0  0  0  0  0  0  0  0  0  0  0  0
   49.1803  114.3910   21.2315 O   0  0  0  0  0  0  0  0  0  0  0  0
   51.0684  112.3444   21.3043 C   0  0  0  0  0  0  0  0  0  0  0  0
   49.7081  111.7838   21.0433 C   0  0  1  0  0  0  0  0  0  0  0  0
   49.3531  111.4544   19.6518 C   0  0  0  0  0  0  0  0  0  0  0  0
   49.4301  110.5489   21.9092 C   0  0  0  0  0  0  0  0  0  0  0  0
   50.6924  116.0461   20.9993 N   0  0  0  0  0  0  0  0  0  0  0  0
   49.8163  116.9481   21.7076 C   0  0  2  0  0  0  0  0  0  0  0  0
   50.4070  118.3236   21.5826 C   0  0  0  0  0  0  0  0  0  0  0  0
   49.7571  119.4299   22.1052 O   0  0  0  0  0  0  0  0  0  0  0  0
   49.6392  116.6514   23.1561 C   0  0  0  0  0  0  0  0  0  0  0  0
   48.6054  115.6363   23.4537 C   0  0  0  0  0  0  0  0  0  0  0  0
   48.3636  115.2800   24.6326 O   0  0  0  0  0  0  0  0  0  0  0  0
   47.8343  115.0127   22.4325 N   0  0  0  0  0  0  0  0  0  0  0  0
   51.5073  118.5036   21.0010 O   0  0  0  0  0  0  0  0  0  0  0  0
  2  1  1  6
  2  3  1  0
  2  5  1  0
  3  4  2  0
  3 10  1  0
  5  6  1  0
  6  7  1  0
  7  8  2  0
  7  9  1  0
 10 11  1  0
 11 12  1  0
 11 14  1  1
 12 13  2  0
 12 18  1  0
 14 15  1  0
 15 16  1  0
 15 17  2  0
 18 19  1  0
 18 24  1  0
 19 20  1  1
 19 22  1  0
 20 21  2  0
 20 25  1  0
 22 23  1  0
 23 24  1  0
 25 26  1  0
 26 27  1  0
 26 29  1  1
 27 28  2  0
 27 37  1  0
 29 30  1  0
 30 31  2  0
 30 32  1  0
 31 33  1  0
 32 34  2  0
 33 35  2  0
 34 35  1  0
 35 36  1  0
 37 38  1  0
 38 39  1  0
 38 41  1  6
 39 40  2  0
 39 45  1  0
 41 42  1  0
 42 43  2  0
 42 44  1  0
 45 46  1  0
 46 47  1  0
 46 49  1  1
 47 48  2  0
 47 53  1  0
 49 50  1  0
 50 51  1  6
 50 52  1  0
 53 54  1  0
 54 55  1  0
 54 57  1  1
 55 56  1  0
 55 61  2  0
 57 58  1  0
 58 59  2  0
 58 60  1  0
M  CHG  1   1   1
M  END
$$$$
