
     RDKit          3D

 61 62  0  0  0  0  0  0  0  0999 V2000
   63.3821  117.4192   18.5282 N   0  0  0  0  0  4  0  0  0  0  0  0
   62.3564  116.4304   18.6503 C   0  0  2  0  0  0  0  0  0  0  0  0
   61.3182  116.7218   17.6163 C   0  0  0  0  0  0  0  0  0  0  0  0
   61.2253  117.8756   17.1510 O   0  0  0  0  0  0  0  0  0  0  0  0
   61.7771  116.3873   20.0153 C   0  0  0  0  0  0  0  0  0  0  0  0
   60.9703  115.2153   20.4125 C   0  0  0  0  0  0  0  0  0  0  0  0
   61.6848  113.9535   20.3272 C   0  0  0  0  0  0  0  0  0  0  0  0
   62.3663  113.5969   21.3520 O   0  0  0  0  0  0  0  0  0  0  0  0
   61.7072  113.0882   19.2385 O   0  0  0  0  0  0  0  0  0  0  0  0
   60.4404  115.7095   17.1555 N   0  0  0  0  0  0  0  0  0  0  0  0
   59.4782  116.0630   16.1683 C   0  0  2  0  0  0  0  0  0  0  0  0
   58.4781  117.0834   16.5399 C   0  0  0  0  0  0  0  0  0  0  0  0
   58.0371  117.0507   17.7625 O   0  0  0  0  0  0  0  0  0  0  0  0
   58.7775  114.8573   15.5692 C   0  0  0  0  0  0  0  0  0  0  0  0
   59.6893  113.9818   14.8324 C   0  0  0  0  0  0  0  0  0  0  0  0
   60.0420  112.7260   15.2823 O   0  0  0  0  0  0  0  0  0  0  0  0
   60.1850  114.3605   13.7464 O   0  0  0  0  0  0  0  0  0  0  0  0
   57.9287  118.1002   15.7401 N   0  0  0  0  0  0  0  0  0  0  0  0
   56.9387  119.0632   16.1268 C   0  0  2  0  0  0  0  0  0  0  0  0
   55.8260  118.5601   16.9460 C   0  0  0  0  0  0  0  0  0  0  0  0
   55.1024  119.3639   17.5764 O   0  0  0  0  0  0  0  0  0  0  0  0
   56.4310  119.6883   14.8357 C   0  0  0  0  0  0  0  0  0  0  0  0
   56.9263  118.7690   13.7311 C   0  0  0  0  0  0  0  0  0  0  0  0
   58.2690  118.3147   14.3236 C   0  0  0  0  0  0  0  0  0  0  0  0
   55.5309  117.1747   17.0552 N   0  0  0  0  0  0  0  0  0  0  0  0
   54.2223  116.5984   17.1190 C   0  0  2  0  0  0  0  0  0  0  0  0
   54.2445  115.2939   17.8552 C   0  0  0  0  0  0  0  0  0  0  0  0
   53.1927  114.5772   17.8653 O   0  0  0  0  0  0  0  0  0  0  0  0
   53.6895  116.4665   15.7136 C   0  0  0  0  0  0  0  0  0  0  0  0
   52.4057  115.7318   15.6297 C   0  0  0  0  0  0  0  0  0  0  0  0
   52.3547  114.3757   15.8669 C   0  0  0  0  0  0  0  0  0  0  0  0
   51.2419  116.3781   15.2987 C   0  0  0  0  0  0  0  0  0  0  0  0
   51.1843  113.6295   15.7868 C   0  0  0  0  0  0  0  0  0  0  0  0
   50.0554  115.6846   15.2064 C   0  0  0  0  0  0  0  0  0  0  0  0
   50.0449  114.3201   15.4519 C   0  0  0  0  0  0  0  0  0  0  0  0
   48.8109  113.6915   15.3399 O   0  0  0  0  0  0  0  0  0  0  0  0
   55.3859  114.8773   18.5073 N   0  0  0  0  0  0  0  0  0  0  0  0
   55.5852  113.7248   19.3479 C   0  0  2  0  0  0  0  0  0  0  0  0
   54.3387  113.2575   19.9615 C   0  0  0  0  0  0  0  0  0  0  0  0
   53.2946  113.8546   19.6304 O   0  0  0  0  0  0  0  0  0  0  0  0
   56.6410  113.8632   20.4145 C   0  0  0  0  0  0  0  0  0  0  0  0
   57.2185  112.5866   20.8818 C   0  0  0  0  0  0  0  0  0  0  0  0
   57.3500  112.2978   22.0921 O   0  0  0  0  0  0  0  0  0  0  0  0
   57.6432  111.6413   19.9585 O   0  0  0  0  0  0  0  0  0  0  0  0
   54.2195  112.2122   20.8791 N   0  0  0  0  0  0  0  0  0  0  0  0
   53.1569  111.7573   21.6777 C   0  0  2  0  0  0  0  0  0  0  0  0
   52.3022  112.7563   22.3458 C   0  0  0  0  0  0  0  0  0  0  0  0
   51.1954  112.4627   22.8432 O   0  0  0  0  0  0  0  0  0  0  0  0
   53.4578  110.6056   22.5638 C   0  0  0  0  0  0  0  0  0  0  0  0
   53.5615  109.2824   21.8773 C   0  0  1  0  0  0  0  0  0  0  0  0
   53.9102  108.1069   22.6942 C   0  0  0  0  0  0  0  0  0  0  0  0
   52.2870  108.9525   21.0906 C   0  0  0  0  0  0  0  0  0  0  0  0
   52.6818  114.1153   22.4694 N   0  0  0  0  0  0  0  0  0  0  0  0
   52.0514  114.9236   23.4852 C   0  0  2  0  0  0  0  0  0  0  0  0
   51.9561  116.3200   22.9397 C   0  0  0  0  0  0  0  0  0  0  0  0
   51.1134  117.2560   23.5168 O   0  0  0  0  0  0  0  0  0  0  0  0
   52.7748  114.9840   24.7854 C   0  0  0  0  0  0  0  0  0  0  0  0
   52.0159  114.4486   25.9366 C   0  0  0  0  0  0  0  0  0  0  0  0
   51.0372  115.0706   26.4166 O   0  0  0  0  0  0  0  0  0  0  0  0
   52.3478  113.2121   26.5587 N   0  0  0  0  0  0  0  0  0  0  0  0
   52.6407  116.6732   21.9458 O   0  0  0  0  0  0  0  0  0  0  0  0
  2  1  1  1
  2  3  1  0
  2  5  1  0
  3  4  2  0
  3 10  1  0
  5  6  1  0
  6  7  1  0
  7  8  2  0
  7  9  1  0
 10 11  1  0
 11 12  1  0
 11 14  1  1
 12 13  2  0
 12 18  1  0
 14 15  1  0
 15 16  1  0
 15 17  2  0
 18 19  1  0
 18 24  1  0
 19 20  1  6
 19 22  1  0
 20 21  2  0
 20 25  1  0
 22 23  1  0
 23 24  1  0
 25 26  1  0
 26 27  1  0
 26 29  1  6
 27 28  2  0
 27 37  1  0
 29 30  1  0
 30 31  2  0
 30 32  1  0
 31 33  1  0
 32 34  2  0
 33 35  2  0
 34 35  1  0
 35 36  1  0
 37 38  1  0
 38 39  1  0
 38 41  1  1
 39 40  2  0
 39 45  1  0
 41 42  1  0
 42 43  2  0
 42 44  1  0
 45 46  1  0
 46 47  1  0
 46 49  1  1
 47 48  2  0
 47 53  1  0
 49 50  1  0
 50 51  1  1
 50 52  1  0
 53 54  1  0
 54 55  1  0
 54 57  1  1
 55 56  1  0
 55 61  2  0
 57 58  1  0
 58 59  2  0
 58 60  1  0
M  CHG  1   1   1
M  END
$$$$
