
     RDKit          3D

 61 62  0  0  0  0  0  0  0  0999 V2000
   65.8322  117.3186   18.3194 N   0  0  0  0  0  4  0  0  0  0  0  0
   65.3388  116.1414   17.6749 C   0  0  2  0  0  0  0  0  0  0  0  0
   64.0993  116.5163   16.9297 C   0  0  0  0  0  0  0  0  0  0  0  0
   63.3244  117.3630   17.4183 O   0  0  0  0  0  0  0  0  0  0  0  0
   65.0916  115.0372   18.6343 C   0  0  0  0  0  0  0  0  0  0  0  0
   64.5873  113.7461   18.1235 C   0  0  0  0  0  0  0  0  0  0  0  0
   65.3017  112.5909   18.6380 C   0  0  0  0  0  0  0  0  0  0  0  0
   64.6647  111.8174   19.4368 O   0  0  0  0  0  0  0  0  0  0  0  0
   66.6163  112.2374   18.3527 O   0  0  0  0  0  0  0  0  0  0  0  0
   63.7921  115.9274   15.6781 N   0  0  0  0  0  0  0  0  0  0  0  0
   62.6017  116.3471   15.0206 C   0  0  2  0  0  0  0  0  0  0  0  0
   61.3231  116.0710   15.7049 C   0  0  0  0  0  0  0  0  0  0  0  0
   61.0687  114.8278   15.9876 O   0  0  0  0  0  0  0  0  0  0  0  0
   62.5230  115.8699   13.5820 C   0  0  0  0  0  0  0  0  0  0  0  0
   61.3534  116.3935   12.8758 C   0  0  0  0  0  0  0  0  0  0  0  0
   60.4918  117.3115   13.4404 O   0  0  0  0  0  0  0  0  0  0  0  0
   61.0988  116.0114   11.7106 O   0  0  0  0  0  0  0  0  0  0  0  0
   60.3279  116.9824   16.0979 N   0  0  0  0  0  0  0  0  0  0  0  0
   59.1472  116.6963   16.8601 C   0  0  2  0  0  0  0  0  0  0  0  0
   58.4345  115.4570   16.5162 C   0  0  0  0  0  0  0  0  0  0  0  0
   58.3994  115.0669   15.3272 O   0  0  0  0  0  0  0  0  0  0  0  0
   58.2423  117.9102   16.7081 C   0  0  0  0  0  0  0  0  0  0  0  0
   58.8291  118.6966   15.5473 C   0  0  0  0  0  0  0  0  0  0  0  0
   60.3261  118.4112   15.7418 C   0  0  0  0  0  0  0  0  0  0  0  0
   57.7712  114.6678   17.4937 N   0  0  0  0  0  0  0  0  0  0  0  0
   56.7825  113.6661   17.2332 C   0  0  2  0  0  0  0  0  0  0  0  0
   56.1225  113.2191   18.5015 C   0  0  0  0  0  0  0  0  0  0  0  0
   55.8262  111.9888   18.6384 O   0  0  0  0  0  0  0  0  0  0  0  0
   57.4378  112.5316   16.4849 C   0  0  0  0  0  0  0  0  0  0  0  0
   58.8953  112.4213   16.7272 C   0  0  0  0  0  0  0  0  0  0  0  0
   59.7991  112.7535   15.7421 C   0  0  0  0  0  0  0  0  0  0  0  0
   59.3798  111.9715   17.9291 C   0  0  0  0  0  0  0  0  0  0  0  0
   61.1764  112.6550   15.9040 C   0  0  0  0  0  0  0  0  0  0  0  0
   60.7359  111.8559   18.1405 C   0  0  0  0  0  0  0  0  0  0  0  0
   61.6139  112.1995   17.1240 C   0  0  0  0  0  0  0  0  0  0  0  0
   62.9653  112.0566   17.4135 O   0  0  0  0  0  0  0  0  0  0  0  0
   55.8445  114.1253   19.5031 N   0  0  0  0  0  0  0  0  0  0  0  0
   54.6317  114.3028   20.2596 C   0  0  2  0  0  0  0  0  0  0  0  0
   53.8152  115.4112   19.7561 C   0  0  0  0  0  0  0  0  0  0  0  0
   53.9635  116.5149   20.3183 O   0  0  0  0  0  0  0  0  0  0  0  0
   54.8016  114.4497   21.7500 C   0  0  0  0  0  0  0  0  0  0  0  0
   56.1477  114.8800   22.1790 C   0  0  0  0  0  0  0  0  0  0  0  0
   57.1901  114.2480   21.8969 O   0  0  0  0  0  0  0  0  0  0  0  0
   56.2963  116.0373   22.9307 O   0  0  0  0  0  0  0  0  0  0  0  0
   52.8913  115.3392   18.7120 N   0  0  0  0  0  0  0  0  0  0  0  0
   51.6603  114.6777   18.5686 C   0  0  2  0  0  0  0  0  0  0  0  0
   50.4796  115.2331   19.2559 C   0  0  0  0  0  0  0  0  0  0  0  0
   49.3141  114.9053   18.9519 O   0  0  0  0  0  0  0  0  0  0  0  0
   51.7052  113.1970   18.6555 C   0  0  0  0  0  0  0  0  0  0  0  0
   50.4003  112.5046   18.4299 C   0  0  1  0  0  0  0  0  0  0  0  0
   50.3918  111.0313   18.4315 C   0  0  0  0  0  0  0  0  0  0  0  0
   49.3273  112.9866   19.4140 C   0  0  0  0  0  0  0  0  0  0  0  0
   50.5903  116.1741   20.3088 N   0  0  0  0  0  0  0  0  0  0  0  0
   50.5301  117.5810   19.9930 C   0  0  2  0  0  0  0  0  0  0  0  0
   49.1124  117.8828   19.5984 C   0  0  0  0  0  0  0  0  0  0  0  0
   48.7517  118.0000   18.2660 O   0  0  0  0  0  0  0  0  0  0  0  0
   51.4216  118.0196   18.8839 C   0  0  0  0  0  0  0  0  0  0  0  0
   52.5672  118.8530   19.3090 C   0  0  0  0  0  0  0  0  0  0  0  0
   52.4901  119.6016   20.3135 O   0  0  0  0  0  0  0  0  0  0  0  0
   53.8083  118.8539   18.6119 N   0  0  0  0  0  0  0  0  0  0  0  0
   48.2181  118.0353   20.4692 O   0  0  0  0  0  0  0  0  0  0  0  0
  2  1  1  1
  2  3  1  0
  2  5  1  0
  3  4  2  0
  3 10  1  0
  5  6  1  0
  6  7  1  0
  7  8  2  0
  7  9  1  0
 10 11  1  0
 11 12  1  0
 11 14  1  6
 12 13  2  0
 12 18  1  0
 14 15  1  0
 15 16  1  0
 15 17  2  0
 18 19  1  0
 18 24  1  0
 19 20  1  6
 19 22  1  0
 20 21  2  0
 20 25  1  0
 22 23  1  0
 23 24  1  0
 25 26  1  0
 26 27  1  0
 26 29  1  1
 27 28  2  0
 27 37  1  0
 29 30  1  0
 30 31  2  0
 30 32  1  0
 31 33  1  0
 32 34  2  0
 33 35  2  0
 34 35  1  0
 35 36  1  0
 37 38  1  0
 38 39  1  0
 38 41  1  1
 39 40  2  0
 39 45  1  0
 41 42  1  0
 42 43  2  0
 42 44  1  0
 45 46  1  0
 46 47  1  0
 46 49  1  1
 47 48  2  0
 47 53  1  0
 49 50  1  0
 50 51  1  1
 50 52  1  0
 53 54  1  0
 54 55  1  0
 54 57  1  6
 55 56  1  0
 55 61  2  0
 57 58  1  0
 58 59  2  0
 58 60  1  0
M  CHG  1   1   1
M  END
$$$$
