
     RDKit          3D

 61 62  0  0  0  0  0  0  0  0999 V2000
   62.4951  120.5936   18.1434 N   0  0  0  0  0  4  0  0  0  0  0  0
   61.1237  120.1930   18.0844 C   0  0  2  0  0  0  0  0  0  0  0  0
   61.0659  118.8683   17.3960 C   0  0  0  0  0  0  0  0  0  0  0  0
   61.9329  118.5826   16.5456 O   0  0  0  0  0  0  0  0  0  0  0  0
   60.2720  121.2022   17.4086 C   0  0  0  0  0  0  0  0  0  0  0  0
   60.4800  121.4647   15.9698 C   0  0  0  0  0  0  0  0  0  0  0  0
   59.3441  122.0914   15.3164 C   0  0  0  0  0  0  0  0  0  0  0  0
   59.5074  122.4821   14.1071 O   0  0  0  0  0  0  0  0  0  0  0  0
   58.0895  122.3146   15.8739 O   0  0  0  0  0  0  0  0  0  0  0  0
   60.0448  117.9325   17.6949 N   0  0  0  0  0  0  0  0  0  0  0  0
   60.4130  116.5631   17.8154 C   0  0  2  0  0  0  0  0  0  0  0  0
   59.5172  115.5691   17.1916 C   0  0  0  0  0  0  0  0  0  0  0  0
   58.4517  115.2421   17.8610 O   0  0  0  0  0  0  0  0  0  0  0  0
   60.7078  116.1554   19.2473 C   0  0  0  0  0  0  0  0  0  0  0  0
   61.0749  114.7444   19.3693 C   0  0  0  0  0  0  0  0  0  0  0  0
   62.1826  114.2065   18.7466 O   0  0  0  0  0  0  0  0  0  0  0  0
   60.3746  113.9694   20.0603 O   0  0  0  0  0  0  0  0  0  0  0  0
   59.6615  114.9178   15.9545 N   0  0  0  0  0  0  0  0  0  0  0  0
   58.7205  114.0350   15.3284 C   0  0  2  0  0  0  0  0  0  0  0  0
   58.0506  113.0666   16.2090 C   0  0  0  0  0  0  0  0  0  0  0  0
   58.0654  111.8481   15.9222 O   0  0  0  0  0  0  0  0  0  0  0  0
   59.4802  113.3298   14.2142 C   0  0  0  0  0  0  0  0  0  0  0  0
   60.9472  113.6034   14.5028 C   0  0  0  0  0  0  0  0  0  0  0  0
   60.8581  115.0153   15.1018 C   0  0  0  0  0  0  0  0  0  0  0  0
   57.3742  113.4614   17.3943 N   0  0  0  0  0  0  0  0  0  0  0  0
   56.2114  112.8342   17.9451 C   0  0  2  0  0  0  0  0  0  0  0  0
   55.7868  113.5080   19.2138 C   0  0  0  0  0  0  0  0  0  0  0  0
   55.4074  112.7890   20.1931 O   0  0  0  0  0  0  0  0  0  0  0  0
   56.5048  111.3662   18.1337 C   0  0  0  0  0  0  0  0  0  0  0  0
   55.4785  110.6507   18.9273 C   0  0  0  0  0  0  0  0  0  0  0  0
   54.4158  111.3315   19.4795 C   0  0  0  0  0  0  0  0  0  0  0  0
   55.5691  109.2994   19.1455 C   0  0  0  0  0  0  0  0  0  0  0  0
   53.4316  110.7188   20.2470 C   0  0  0  0  0  0  0  0  0  0  0  0
   54.6197  108.6447   19.8986 C   0  0  0  0  0  0  0  0  0  0  0  0
   53.5650  109.3649   20.4382 C   0  0  0  0  0  0  0  0  0  0  0  0
   52.6486  108.6344   21.1845 O   0  0  0  0  0  0  0  0  0  0  0  0
   55.8102  114.8829   19.3181 N   0  0  0  0  0  0  0  0  0  0  0  0
   55.0738  115.8658   18.5655 C   0  0  2  0  0  0  0  0  0  0  0  0
   53.6247  115.7391   18.7468 C   0  0  0  0  0  0  0  0  0  0  0  0
   52.9206  116.6558   18.2775 O   0  0  0  0  0  0  0  0  0  0  0  0
   55.3847  115.9345   17.0923 C   0  0  0  0  0  0  0  0  0  0  0  0
   54.7400  117.0540   16.3763 C   0  0  0  0  0  0  0  0  0  0  0  0
   53.9034  116.8890   15.4606 O   0  0  0  0  0  0  0  0  0  0  0  0
   55.0554  118.3630   16.7135 O   0  0  0  0  0  0  0  0  0  0  0  0
   52.9693  114.6915   19.3962 N   0  0  0  0  0  0  0  0  0  0  0  0
   51.6255  114.4728   19.7426 C   0  0  2  0  0  0  0  0  0  0  0  0
   51.1340  115.0096   21.0252 C   0  0  0  0  0  0  0  0  0  0  0  0
   51.5984  114.6431   22.1245 O   0  0  0  0  0  0  0  0  0  0  0  0
   51.0997  113.1113   19.4748 C   0  0  0  0  0  0  0  0  0  0  0  0
   51.0235  112.7288   18.0323 C   0  0  1  0  0  0  0  0  0  0  0  0
   50.6410  111.3442   17.7050 C   0  0  0  0  0  0  0  0  0  0  0  0
   50.1070  113.6733   17.2450 C   0  0  0  0  0  0  0  0  0  0  0  0
   50.1034  115.9788   21.0945 N   0  0  0  0  0  0  0  0  0  0  0  0
   49.7137  116.4879   22.3874 C   0  0  2  0  0  0  0  0  0  0  0  0
   48.2126  116.4589   22.4373 C   0  0  0  0  0  0  0  0  0  0  0  0
   47.5333  115.3178   22.8319 O   0  0  0  0  0  0  0  0  0  0  0  0
   50.1588  117.8784   22.6806 C   0  0  0  0  0  0  0  0  0  0  0  0
   51.6192  118.0319   22.8577 C   0  0  0  0  0  0  0  0  0  0  0  0
   52.1575  117.8841   23.9818 O   0  0  0  0  0  0  0  0  0  0  0  0
   52.4879  118.3521   21.7765 N   0  0  0  0  0  0  0  0  0  0  0  0
   47.5363  117.4713   22.1228 O   0  0  0  0  0  0  0  0  0  0  0  0
  2  1  1  6
  2  3  1  0
  2  5  1  0
  3  4  2  0
  3 10  1  0
  5  6  1  0
  6  7  1  0
  7  8  2  0
  7  9  1  0
 10 11  1  0
 11 12  1  0
 11 14  1  1
 12 13  2  0
 12 18  1  0
 14 15  1  0
 15 16  1  0
 15 17  2  0
 18 19  1  0
 18 24  1  0
 19 20  1  1
 19 22  1  0
 20 21  2  0
 20 25  1  0
 22 23  1  0
 23 24  1  0
 25 26  1  0
 26 27  1  0
 26 29  1  1
 27 28  2  0
 27 37  1  0
 29 30  1  0
 30 31  2  0
 30 32  1  0
 31 33  1  0
 32 34  2  0
 33 35  2  0
 34 35  1  0
 35 36  1  0
 37 38  1  0
 38 39  1  0
 38 41  1  6
 39 40  2  0
 39 45  1  0
 41 42  1  0
 42 43  2  0
 42 44  1  0
 45 46  1  0
 46 47  1  0
 46 49  1  1
 47 48  2  0
 47 53  1  0
 49 50  1  0
 50 51  1  1
 50 52  1  0
 53 54  1  0
 54 55  1  0
 54 57  1  6
 55 56  1  0
 55 61  2  0
 57 58  1  0
 58 59  2  0
 58 60  1  0
M  CHG  1   1   1
M  END
$$$$
