
     RDKit          3D

 30 33  0  0  0  0  0  0  0  0999 V2000
   -4.9162  -16.8645   68.1058 C   0  0  0  0  0  0  0  0  0  0  0  0
   -3.6720  -18.3192   69.2131 C   0  0  0  0  0  0  0  0  0  0  0  0
   -3.5626  -17.1581   71.4689 C   0  0  0  0  0  0  0  0  0  0  0  0
   -2.4387  -18.0494   73.4030 C   0  0  0  0  0  0  0  0  0  0  0  0
   -3.8787  -16.0458   72.2085 C   0  0  0  0  0  0  0  0  0  0  0  0
   -3.6521  -14.9493   65.5105 C   0  0  0  0  0  0  0  0  0  0  0  0
   -2.6012  -14.3536   64.8237 C   0  0  0  0  0  0  0  0  0  0  0  0
   -2.6111  -12.3110   66.2259 C   0  0  0  0  0  0  0  0  0  0  0  0
   -0.7897  -13.0653   67.7221 C   0  0  0  0  0  0  0  0  0  0  0  0
   -1.1454  -13.5359   70.0476 C   0  0  0  0  0  0  0  0  0  0  0  0
   -0.4645  -13.1540   63.4713 N   0  0  0  0  0  0  0  0  0  0  0  0
   -1.0209  -14.3560   62.9892 C   0  0  0  0  0  0  0  0  0  0  0  0
   -0.5778  -14.8876   61.9268 N   0  0  0  0  0  4  0  0  0  0  0  0
   -2.1075  -14.9688   63.7189 C   0  0  0  0  0  0  0  0  0  0  0  0
   -2.6299  -16.1909   63.2517 C   0  0  0  0  0  0  0  0  0  0  0  0
   -3.6708  -16.7728   63.9392 C   0  0  0  0  0  0  0  0  0  0  0  0
   -4.1775  -16.1444   65.0703 C   0  0  0  0  0  0  0  0  0  0  0  0
   -5.2537  -16.7719   65.7592 N   0  0  0  0  0  0  0  0  0  0  0  0
   -5.6791  -16.2156   67.0191 C   0  0  0  0  0  0  0  0  0  0  0  0
   -4.7284  -16.4314   69.3661 N   0  0  0  0  0  0  0  0  0  0  0  0
   -3.9780  -17.2853   70.0733 C   0  0  0  0  0  0  0  0  0  0  0  0
   -4.2513  -18.0386   68.0329 N   0  0  0  0  0  0  0  0  0  0  0  0
   -2.8391  -18.1653   72.0684 C   0  0  0  0  0  0  0  0  0  0  0  0
   -2.7625  -16.9329   74.1263 C   0  0  0  0  0  0  0  0  0  0  0  0
   -3.4886  -15.9091   73.5442 C   0  0  0  0  0  0  0  0  0  0  0  0
   -2.0949  -13.1763   65.2726 O   0  0  0  0  0  0  0  0  0  0  0  0
   -2.1214  -12.7351   67.5710 C   0  0  0  0  0  0  0  0  0  0  0  0
   -0.3134  -13.4608   68.9506 C   0  0  0  0  0  0  0  0  0  0  0  0
   -2.4328  -13.2033   69.8449 N   0  0  0  0  0  0  0  0  0  0  0  0
   -2.9316  -12.8148   68.6673 C   0  0  0  0  0  0  0  0  0  0  0  0
 19  1  1  0
  1 20  2  0
  1 22  1  0
  2 21  2  0
 22  2  1  0
  3  5  2  0
 21  3  1  0
  3 23  1  0
 23  4  2  0
  4 24  1  0
  5 25  1  0
  6  7  2  0
 17  6  1  0
  7 14  1  0
  7 26  1  0
  8 26  1  1
  8 27  1  0
 27  9  2  0
  9 28  1  0
 28 10  2  0
 10 29  1  0
 12 11  1  0
 12 13  2  0
 14 12  1  0
 15 14  2  0
 16 15  1  0
 17 16  2  0
 18 17  1  0
 19 18  1  6
 20 21  1  0
 24 25  2  0
 27 30  1  0
 29 30  2  0
M  CHG  1  13   1
M  END
$$$$
