
     RDKit          3D

 30 33  0  0  0  0  0  0  0  0999 V2000
   -5.1571  -16.1348   68.2073 C   0  0  0  0  0  0  0  0  0  0  0  0
   -3.9832  -16.7858   69.9646 C   0  0  0  0  0  0  0  0  0  0  0  0
   -4.4087  -14.8200   71.5148 C   0  0  0  0  0  0  0  0  0  0  0  0
   -3.9458  -14.7739   73.8774 C   0  0  0  0  0  0  0  0  0  0  0  0
   -4.5961  -13.4610   71.5605 C   0  0  0  0  0  0  0  0  0  0  0  0
   -3.4896  -15.0751   65.5362 C   0  0  0  0  0  0  0  0  0  0  0  0
   -2.4852  -14.4920   64.7733 C   0  0  0  0  0  0  0  0  0  0  0  0
   -2.6652  -12.2546   65.8221 C   0  0  0  0  0  0  0  0  0  0  0  0
   -1.2580  -13.1045   67.6721 C   0  0  0  0  0  0  0  0  0  0  0  0
   -1.9171  -12.9372   69.9728 C   0  0  0  0  0  0  0  0  0  0  0  0
   -0.5061  -13.2760   63.2120 N   0  0  0  0  0  0  0  0  0  0  0  0
   -0.9478  -14.5788   62.9046 C   0  0  0  0  0  0  0  0  0  0  0  0
   -0.4451  -15.2134   61.9288 N   0  0  0  0  0  4  0  0  0  0  0  0
   -1.9861  -15.1768   63.7127 C   0  0  0  0  0  0  0  0  0  0  0  0
   -2.4571  -16.4585   63.3663 C   0  0  0  0  0  0  0  0  0  0  0  0
   -3.4522  -17.0274   64.1285 C   0  0  0  0  0  0  0  0  0  0  0  0
   -3.9644  -16.3277   65.2143 C   0  0  0  0  0  0  0  0  0  0  0  0
   -4.9924  -16.9435   65.9828 N   0  0  0  0  0  0  0  0  0  0  0  0
   -5.7772  -16.1175   66.8659 C   0  0  0  0  0  0  0  0  0  0  0  0
   -5.2477  -15.2087   69.1794 N   0  0  0  0  0  0  0  0  0  0  0  0
   -4.5492  -15.5644   70.2648 C   0  0  0  0  0  0  0  0  0  0  0  0
   -4.3670  -17.1056   68.7165 N   0  0  0  0  0  0  0  0  0  0  0  0
   -4.0819  -15.4804   72.6786 C   0  0  0  0  0  0  0  0  0  0  0  0
   -4.1363  -13.4183   73.9052 C   0  0  0  0  0  0  0  0  0  0  0  0
   -4.4650  -12.7347   72.7481 C   0  0  0  0  0  0  0  0  0  0  0  0
   -2.0283  -13.2573   65.1057 O   0  0  0  0  0  0  0  0  0  0  0  0
   -2.4249  -12.4815   67.2781 C   0  0  0  0  0  0  0  0  0  0  0  0
   -1.0130  -13.3270   69.0074 C   0  0  0  0  0  0  0  0  0  0  0  0
   -3.0370  -12.3349   69.5344 N   0  0  0  0  0  0  0  0  0  0  0  0
   -3.3094  -12.1019   68.2467 C   0  0  0  0  0  0  0  0  0  0  0  0
 19  1  1  0
  1 20  2  0
  1 22  1  0
  2 21  2  0
 22  2  1  0
  3  5  2  0
 21  3  1  0
  3 23  1  0
 23  4  2  0
  4 24  1  0
  5 25  1  0
  6  7  2  0
 17  6  1  0
  7 14  1  0
  7 26  1  0
  8 26  1  1
  8 27  1  0
 27  9  2  0
  9 28  1  0
 28 10  2  0
 10 29  1  0
 12 11  1  0
 12 13  2  0
 14 12  1  0
 15 14  2  0
 16 15  1  0
 17 16  2  0
 18 17  1  0
 19 18  1  6
 20 21  1  0
 24 25  2  0
 27 30  1  0
 29 30  2  0
M  CHG  1  13   1
M  END
$$$$
