
     RDKit          3D

 30 33  0  0  0  0  0  0  0  0999 V2000
   -6.2026  -15.7656   67.8134 C   0  0  0  0  0  0  0  0  0  0  0  0
   -7.9768  -14.6338   67.2511 C   0  0  0  0  0  0  0  0  0  0  0  0
   -7.7858  -12.6666   68.8619 C   0  0  0  0  0  0  0  0  0  0  0  0
   -9.4760  -10.9766   69.1595 C   0  0  0  0  0  0  0  0  0  0  0  0
   -6.9678  -11.9394   69.6905 C   0  0  0  0  0  0  0  0  0  0  0  0
   -3.5272  -15.3782   65.8482 C   0  0  0  0  0  0  0  0  0  0  0  0
   -2.6938  -14.6749   65.0209 C   0  0  0  0  0  0  0  0  0  0  0  0
   -2.9600  -12.5534   66.2333 C   0  0  0  0  0  0  0  0  0  0  0  0
   -0.9845  -12.9061   67.7375 C   0  0  0  0  0  0  0  0  0  0  0  0
   -0.6419  -11.4703   69.6200 C   0  0  0  0  0  0  0  0  0  0  0  0
   -0.9807  -15.2880   61.7546 N   0  0  0  0  0  0  0  0  0  0  0  0
   -1.4128  -14.5983   62.9042 C   0  0  0  0  0  0  0  0  0  0  0  0
   -1.0342  -13.4046   63.1175 N   0  0  0  0  0  4  0  0  0  0  0  0
   -2.2977  -15.2637   63.8392 C   0  0  0  0  0  0  0  0  0  0  0  0
   -2.7574  -16.5412   63.5357 C   0  0  0  0  0  0  0  0  0  0  0  0
   -3.5906  -17.2211   64.3831 C   0  0  0  0  0  0  0  0  0  0  0  0
   -4.0050  -16.6657   65.5669 C   0  0  0  0  0  0  0  0  0  0  0  0
   -4.8488  -17.3312   66.4899 N   0  0  0  0  0  0  0  0  0  0  0  0
   -5.1985  -16.8742   67.7830 C   0  0  0  0  0  0  0  0  0  0  0  0
   -6.2780  -14.6662   68.5691 N   0  0  0  0  0  0  0  0  0  0  0  0
   -7.3648  -13.9239   68.2610 C   0  0  0  0  0  0  0  0  0  0  0  0
   -7.2805  -15.7351   66.9846 N   0  0  0  0  0  0  0  0  0  0  0  0
   -9.0427  -12.1827   68.5967 C   0  0  0  0  0  0  0  0  0  0  0  0
   -8.6406  -10.2614   69.9883 C   0  0  0  0  0  0  0  0  0  0  0  0
   -7.3836  -10.7416   70.2559 C   0  0  0  0  0  0  0  0  0  0  0  0
   -2.2801  -13.4205   65.3826 O   0  0  0  0  0  0  0  0  0  0  0  0
   -2.1251  -12.2045   67.4091 C   0  0  0  0  0  0  0  0  0  0  0  0
   -0.2507  -12.5358   68.8390 C   0  0  0  0  0  0  0  0  0  0  0  0
   -1.7652  -10.7831   69.2925 N   0  0  0  0  0  0  0  0  0  0  0  0
   -2.4744  -11.1444   68.2242 C   0  0  0  0  0  0  0  0  0  0  0  0
 19  1  1  0
  1 20  2  0
  1 22  1  0
  2 21  2  0
 22  2  1  0
  3  5  2  0
 21  3  1  0
  3 23  1  0
 23  4  2  0
  4 24  1  0
  5 25  1  0
  6  7  2  0
 17  6  1  0
  7 14  1  0
  7 26  1  0
 26  8  1  0
  8 27  1  0
 27  9  2  0
  9 28  1  0
 28 10  2  0
 10 29  1  0
 12 11  1  0
 12 13  2  0
 14 12  1  0
 15 14  2  0
 16 15  1  0
 17 16  2  0
 18 17  1  0
 18 19  1  0
 20 21  1  0
 24 25  2  0
 27 30  1  0
 29 30  2  0
M  CHG  1  13   1
M  END
$$$$
