
     RDKit          3D

 30 33  0  0  0  0  0  0  0  0999 V2000
   -7.1401  -16.1384   67.6126 C   0  0  0  0  0  0  0  0  0  0  0  0
   -8.4673  -14.3824   67.4003 C   0  0  0  0  0  0  0  0  0  0  0  0
  -10.6365  -15.5568   66.7967 C   0  0  0  0  0  0  0  0  0  0  0  0
  -12.7491  -14.4422   66.4921 C   0  0  0  0  0  0  0  0  0  0  0  0
  -11.2449  -16.7332   66.4361 C   0  0  0  0  0  0  0  0  0  0  0  0
   -3.4996  -14.5792   66.4920 C   0  0  0  0  0  0  0  0  0  0  0  0
   -2.8530  -14.3018   65.2938 C   0  0  0  0  0  0  0  0  0  0  0  0
   -2.3625  -11.9493   65.8964 C   0  0  0  0  0  0  0  0  0  0  0  0
   -0.3554  -12.6158   67.1818 C   0  0  0  0  0  0  0  0  0  0  0  0
   -0.3033  -12.6145   69.5804 C   0  0  0  0  0  0  0  0  0  0  0  0
   -1.5333  -13.7300   62.8930 N   0  0  0  0  0  0  0  0  0  0  0  0
   -2.1830  -14.9691   63.0647 C   0  0  0  0  0  0  0  0  0  0  0  0
   -2.1925  -15.8239   62.1283 N   0  0  0  0  0  4  0  0  0  0  0  0
   -2.8435  -15.2473   64.3196 C   0  0  0  0  0  0  0  0  0  0  0  0
   -3.4690  -16.4980   64.4905 C   0  0  0  0  0  0  0  0  0  0  0  0
   -4.1067  -16.7629   65.6813 C   0  0  0  0  0  0  0  0  0  0  0  0
   -4.1177  -15.7962   66.6794 C   0  0  0  0  0  0  0  0  0  0  0  0
   -4.7852  -16.1010   67.8992 N   0  0  0  0  0  0  0  0  0  0  0  0
   -5.9385  -16.9645   67.8531 C   0  0  0  0  0  0  0  0  0  0  0  0
   -8.3799  -16.5462   67.2844 N   0  0  0  0  0  0  0  0  0  0  0  0
   -9.2178  -15.5113   67.1457 C   0  0  0  0  0  0  0  0  0  0  0  0
   -7.2173  -14.7910   67.6792 N   0  0  0  0  0  0  0  0  0  0  0  0
  -11.3917  -14.4051   66.8251 C   0  0  0  0  0  0  0  0  0  0  0  0
  -13.3401  -15.6243   66.1346 C   0  0  0  0  0  0  0  0  0  0  0  0
  -12.6006  -16.7931   66.0993 C   0  0  0  0  0  0  0  0  0  0  0  0
   -2.2481  -13.0977   65.1268 O   0  0  0  0  0  0  0  0  0  0  0  0
   -1.6628  -12.1737   67.1961 C   0  0  0  0  0  0  0  0  0  0  0  0
    0.3115  -12.8320   68.3655 C   0  0  0  0  0  0  0  0  0  0  0  0
   -1.5770  -12.1842   69.5370 N   0  0  0  0  0  0  0  0  0  0  0  0
   -2.2568  -11.9633   68.4075 C   0  0  0  0  0  0  0  0  0  0  0  0
 19  1  1  0
  1 20  2  0
  1 22  1  0
  2 21  2  0
 22  2  1  0
  3  5  2  0
 21  3  1  0
  3 23  1  0
 23  4  2  0
  4 24  1  0
  5 25  1  0
  6  7  2  0
 17  6  1  0
  7 14  1  0
  7 26  1  0
  8 26  1  1
  8 27  1  0
 27  9  2  0
  9 28  1  0
 28 10  2  0
 10 29  1  0
 12 11  1  0
 12 13  2  0
 14 12  1  0
 15 14  2  0
 16 15  1  0
 17 16  2  0
 18 17  1  0
 19 18  1  6
 20 21  1  0
 24 25  2  0
 27 30  1  0
 29 30  2  0
M  CHG  1  13   1
M  END
$$$$
