
     RDKit          3D

 30 33  0  0  0  0  0  0  0  0999 V2000
   -6.7205  -16.7824   67.3609 C   0  0  0  0  0  0  0  0  0  0  0  0
   -8.5490  -16.7695   66.1772 C   0  0  0  0  0  0  0  0  0  0  0  0
   -9.9733  -15.1738   67.5653 C   0  0  0  0  0  0  0  0  0  0  0  0
  -11.0953  -13.5542   68.9507 C   0  0  0  0  0  0  0  0  0  0  0  0
  -11.1331  -15.3012   66.8420 C   0  0  0  0  0  0  0  0  0  0  0  0
   -3.6195  -15.6491   65.8215 C   0  0  0  0  0  0  0  0  0  0  0  0
   -2.9366  -14.9036   64.8988 C   0  0  0  0  0  0  0  0  0  0  0  0
   -3.4340  -12.7916   66.0537 C   0  0  0  0  0  0  0  0  0  0  0  0
   -1.8358  -11.6092   67.5826 C   0  0  0  0  0  0  0  0  0  0  0  0
   -1.2121  -12.6065   69.6656 C   0  0  0  0  0  0  0  0  0  0  0  0
   -1.5090  -13.4456   62.8765 N   0  0  0  0  0  0  0  0  0  0  0  0
   -1.7004  -14.8357   62.7554 C   0  0  0  0  0  0  0  0  0  0  0  0
   -1.2264  -15.4650   61.7589 N   0  0  0  0  0  4  0  0  0  0  0  0
   -2.4405  -15.5414   63.7822 C   0  0  0  0  0  0  0  0  0  0  0  0
   -2.6519  -16.9088   63.6377 C   0  0  0  0  0  0  0  0  0  0  0  0
   -3.3389  -17.6292   64.5777 C   0  0  0  0  0  0  0  0  0  0  0  0
   -3.8467  -17.0271   65.7007 C   0  0  0  0  0  0  0  0  0  0  0  0
   -4.5465  -17.7266   66.7146 N   0  0  0  0  0  0  0  0  0  0  0  0
   -5.3220  -17.1474   67.7472 C   0  0  0  0  0  0  0  0  0  0  0  0
   -7.6138  -15.9781   67.9445 N   0  0  0  0  0  0  0  0  0  0  0  0
   -8.7719  -15.9327   67.2489 C   0  0  0  0  0  0  0  0  0  0  0  0
   -7.3216  -17.2769   66.2457 N   0  0  0  0  0  0  0  0  0  0  0  0
   -9.9558  -14.2978   68.6219 C   0  0  0  0  0  0  0  0  0  0  0  0
  -12.2494  -13.6961   68.2131 C   0  0  0  0  0  0  0  0  0  0  0  0
  -12.2709  -14.5706   67.1563 C   0  0  0  0  0  0  0  0  0  0  0  0
   -2.7659  -13.5605   65.1049 O   0  0  0  0  0  0  0  0  0  0  0  0
   -2.6427  -12.6921   67.3049 C   0  0  0  0  0  0  0  0  0  0  0  0
   -1.1263  -11.5725   68.7591 C   0  0  0  0  0  0  0  0  0  0  0  0
   -2.0077  -13.6700   69.3876 N   0  0  0  0  0  0  0  0  0  0  0  0
   -2.6942  -13.7027   68.2463 C   0  0  0  0  0  0  0  0  0  0  0  0
 19  1  1  0
  1 20  2  0
  1 22  1  0
  2 21  2  0
 22  2  1  0
  3  5  2  0
 21  3  1  0
  3 23  1  0
 23  4  2  0
  4 24  1  0
  5 25  1  0
  6  7  2  0
 17  6  1  0
  7 14  1  0
  7 26  1  0
 26  8  1  0
  8 27  1  0
 27  9  2  0
  9 28  1  0
 28 10  2  0
 10 29  1  0
 12 11  1  0
 12 13  2  0
 14 12  1  0
 15 14  2  0
 16 15  1  0
 17 16  2  0
 18 17  1  0
 18 19  1  0
 20 21  1  0
 24 25  2  0
 27 30  1  0
 29 30  2  0
M  CHG  1  13   1
M  END
$$$$
