
     RDKit          3D

 30 33  0  0  0  0  0  0  0  0999 V2000
   -6.4722  -16.3066   67.9691 C   0  0  0  0  0  0  0  0  0  0  0  0
   -8.1678  -17.6393   68.4580 C   0  0  0  0  0  0  0  0  0  0  0  0
   -8.2837  -17.2794   70.9692 C   0  0  0  0  0  0  0  0  0  0  0  0
   -8.2117  -16.8964   73.3455 C   0  0  0  0  0  0  0  0  0  0  0  0
   -9.3921  -18.0650   71.1647 C   0  0  0  0  0  0  0  0  0  0  0  0
   -3.6846  -14.4949   65.2573 C   0  0  0  0  0  0  0  0  0  0  0  0
   -2.7209  -14.0192   64.3765 C   0  0  0  0  0  0  0  0  0  0  0  0
   -2.4455  -11.8728   65.5828 C   0  0  0  0  0  0  0  0  0  0  0  0
   -2.5646  -12.1896   68.0344 C   0  0  0  0  0  0  0  0  0  0  0  0
   -0.7252  -13.0492   69.3125 C   0  0  0  0  0  0  0  0  0  0  0  0
   -0.8125  -13.0228   62.5884 N   0  0  0  0  0  0  0  0  0  0  0  0
   -1.3952  -14.2872   62.3680 C   0  0  0  0  0  0  0  0  0  0  0  0
   -1.0560  -14.9841   61.3646 N   0  0  0  0  0  4  0  0  0  0  0  0
   -2.3890  -14.7737   63.2977 C   0  0  0  0  0  0  0  0  0  0  0  0
   -2.9931  -16.0217   63.0484 C   0  0  0  0  0  0  0  0  0  0  0  0
   -3.9465  -16.4840   63.9270 C   0  0  0  0  0  0  0  0  0  0  0  0
   -4.2876  -15.7130   65.0316 C   0  0  0  0  0  0  0  0  0  0  0  0
   -5.2767  -16.2191   65.9215 N   0  0  0  0  0  0  0  0  0  0  0  0
   -5.4384  -15.5795   67.2031 C   0  0  0  0  0  0  0  0  0  0  0  0
   -6.7115  -16.2662   69.2928 N   0  0  0  0  0  0  0  0  0  0  0  0
   -7.7335  -17.0613   69.6327 C   0  0  0  0  0  0  0  0  0  0  0  0
   -7.3884  -17.1656   67.4704 N   0  0  0  0  0  0  0  0  0  0  0  0
   -7.6900  -16.6917   72.0645 C   0  0  0  0  0  0  0  0  0  0  0  0
   -9.3181  -17.6831   73.5226 C   0  0  0  0  0  0  0  0  0  0  0  0
   -9.9305  -18.2831   72.4366 C   0  0  0  0  0  0  0  0  0  0  0  0
   -2.1361  -12.8172   64.6151 O   0  0  0  0  0  0  0  0  0  0  0  0
   -1.8238  -12.2908   66.8742 C   0  0  0  0  0  0  0  0  0  0  0  0
   -2.0146  -12.5666   69.2378 C   0  0  0  0  0  0  0  0  0  0  0  0
   -0.0482  -13.1272   68.1528 N   0  0  0  0  0  0  0  0  0  0  0  0
   -0.5486  -12.7706   66.9658 C   0  0  0  0  0  0  0  0  0  0  0  0
 19  1  1  0
  1 20  2  0
  1 22  1  0
  2 21  2  0
 22  2  1  0
  3  5  2  0
 21  3  1  0
  3 23  1  0
 23  4  2  0
  4 24  1  0
  5 25  1  0
  6  7  2  0
 17  6  1  0
  7 14  1  0
  7 26  1  0
  8 26  1  1
  8 27  1  0
 27  9  2  0
  9 28  1  0
 28 10  2  0
 10 29  1  0
 12 11  1  0
 12 13  2  0
 14 12  1  0
 15 14  2  0
 16 15  1  0
 17 16  2  0
 18 17  1  0
 19 18  1  6
 20 21  1  0
 24 25  2  0
 27 30  1  0
 29 30  2  0
M  CHG  1  13   1
M  END
$$$$
