
     RDKit          3D

 30 33  0  0  0  0  0  0  0  0999 V2000
   -4.3330  -17.0639   68.4312 C   0  0  0  0  0  0  0  0  0  0  0  0
   -3.1872  -16.0356   70.0186 C   0  0  0  0  0  0  0  0  0  0  0  0
   -2.3233  -18.0527   71.2969 C   0  0  0  0  0  0  0  0  0  0  0  0
   -1.3399  -18.0011   73.4943 C   0  0  0  0  0  0  0  0  0  0  0  0
   -1.8806  -19.3454   71.1672 C   0  0  0  0  0  0  0  0  0  0  0  0
   -3.7409  -14.3679   65.7445 C   0  0  0  0  0  0  0  0  0  0  0  0
   -2.7044  -13.9855   64.9017 C   0  0  0  0  0  0  0  0  0  0  0  0
   -2.0219  -11.9361   66.1151 C   0  0  0  0  0  0  0  0  0  0  0  0
   -3.2577  -10.0734   67.1773 C   0  0  0  0  0  0  0  0  0  0  0  0
   -4.6182   -8.5484   65.9205 C   0  0  0  0  0  0  0  0  0  0  0  0
   -0.7027  -13.1617   63.1248 N   0  0  0  0  0  0  0  0  0  0  0  0
   -1.1457  -14.4998   63.1215 C   0  0  0  0  0  0  0  0  0  0  0  0
   -0.6151  -15.3496   62.3444 N   0  0  0  0  0  4  0  0  0  0  0  0
   -2.2172  -14.8866   64.0108 C   0  0  0  0  0  0  0  0  0  0  0  0
   -2.7323  -16.1946   63.9183 C   0  0  0  0  0  0  0  0  0  0  0  0
   -3.7589  -16.5635   64.7578 C   0  0  0  0  0  0  0  0  0  0  0  0
   -4.2590  -15.6424   65.6701 C   0  0  0  0  0  0  0  0  0  0  0  0
   -5.3204  -16.0548   66.5244 N   0  0  0  0  0  0  0  0  0  0  0  0
   -5.1801  -17.2966   67.2427 C   0  0  0  0  0  0  0  0  0  0  0  0
   -3.7735  -17.9759   69.2475 N   0  0  0  0  0  0  0  0  0  0  0  0
   -3.0685  -17.3941   70.2257 C   0  0  0  0  0  0  0  0  0  0  0  0
   -3.9558  -15.8655   68.9288 N   0  0  0  0  0  0  0  0  0  0  0  0
   -2.0520  -17.3764   72.4659 C   0  0  0  0  0  0  0  0  0  0  0  0
   -0.9056  -19.2913   73.3483 C   0  0  0  0  0  0  0  0  0  0  0  0
   -1.1669  -19.9893   72.1826 C   0  0  0  0  0  0  0  0  0  0  0  0
   -2.2051  -12.7258   64.9895 O   0  0  0  0  0  0  0  0  0  0  0  0
   -2.9300  -10.7546   66.0225 C   0  0  0  0  0  0  0  0  0  0  0  0
   -4.0938   -8.9824   67.1196 C   0  0  0  0  0  0  0  0  0  0  0  0
   -4.2667   -9.2478   64.8266 N   0  0  0  0  0  0  0  0  0  0  0  0
   -3.4578  -10.3118   64.8435 C   0  0  0  0  0  0  0  0  0  0  0  0
 19  1  1  0
  1 20  2  0
  1 22  1  0
  2 21  2  0
 22  2  1  0
  3  5  2  0
 21  3  1  0
  3 23  1  0
 23  4  2  0
  4 24  1  0
  5 25  1  0
  6  7  2  0
 17  6  1  0
  7 14  1  0
  7 26  1  0
  8 26  1  1
  8 27  1  0
 27  9  2  0
  9 28  1  0
 28 10  2  0
 10 29  1  0
 12 11  1  0
 12 13  2  0
 14 12  1  0
 15 14  2  0
 16 15  1  0
 17 16  2  0
 18 17  1  0
 19 18  1  6
 20 21  1  0
 24 25  2  0
 27 30  1  0
 29 30  2  0
M  CHG  1  13   1
M  END
$$$$
