
     RDKit          3D

 30 33  0  0  0  0  0  0  0  0999 V2000
   -6.4937  -16.2667   67.6893 C   0  0  0  0  0  0  0  0  0  0  0  0
   -7.5776  -14.3891   67.9009 C   0  0  0  0  0  0  0  0  0  0  0  0
   -9.9762  -15.2263   67.6839 C   0  0  0  0  0  0  0  0  0  0  0  0
  -12.1407  -16.1805   67.2305 C   0  0  0  0  0  0  0  0  0  0  0  0
  -10.6072  -14.0584   68.0336 C   0  0  0  0  0  0  0  0  0  0  0  0
   -3.4643  -15.7049   65.8381 C   0  0  0  0  0  0  0  0  0  0  0  0
   -2.6302  -14.9643   65.0448 C   0  0  0  0  0  0  0  0  0  0  0  0
   -1.7481  -13.6054   66.8932 C   0  0  0  0  0  0  0  0  0  0  0  0
   -2.1816  -11.8421   68.6232 C   0  0  0  0  0  0  0  0  0  0  0  0
   -3.6311  -10.0058   68.1237 C   0  0  0  0  0  0  0  0  0  0  0  0
   -1.0198  -15.3392   61.7189 N   0  0  0  0  0  0  0  0  0  0  0  0
   -1.5486  -14.6673   62.8382 C   0  0  0  0  0  0  0  0  0  0  0  0
   -1.2689  -13.4457   63.0455 N   0  0  0  0  0  4  0  0  0  0  0  0
   -2.4191  -15.3836   63.7489 C   0  0  0  0  0  0  0  0  0  0  0  0
   -3.0577  -16.5355   63.3009 C   0  0  0  0  0  0  0  0  0  0  0  0
   -3.8869  -17.2567   64.1175 C   0  0  0  0  0  0  0  0  0  0  0  0
   -4.1200  -16.8685   65.4124 C   0  0  0  0  0  0  0  0  0  0  0  0
   -4.9510  -17.5873   66.3067 N   0  0  0  0  0  0  0  0  0  0  0  0
   -5.3161  -17.1864   67.6141 C   0  0  0  0  0  0  0  0  0  0  0  0
   -7.8053  -16.5062   67.6010 N   0  0  0  0  0  0  0  0  0  0  0  0
   -8.5282  -15.3710   67.7261 C   0  0  0  0  0  0  0  0  0  0  0  0
   -6.3612  -14.9264   67.8786 N   0  0  0  0  0  0  0  0  0  0  0  0
  -10.7462  -16.2891   67.2816 C   0  0  0  0  0  0  0  0  0  0  0  0
  -12.7553  -15.0003   67.5852 C   0  0  0  0  0  0  0  0  0  0  0  0
  -11.9892  -13.9358   67.9879 C   0  0  0  0  0  0  0  0  0  0  0  0
   -2.0346  -13.8400   65.5513 O   0  0  0  0  0  0  0  0  0  0  0  0
   -2.3890  -12.3508   67.3586 C   0  0  0  0  0  0  0  0  0  0  0  0
   -2.8025  -10.6747   68.9979 C   0  0  0  0  0  0  0  0  0  0  0  0
   -3.8320  -10.5107   66.8802 N   0  0  0  0  0  0  0  0  0  0  0  0
   -3.2287  -11.6424   66.5199 C   0  0  0  0  0  0  0  0  0  0  0  0
 19  1  1  0
  1 20  2  0
  1 22  1  0
  2 21  2  0
 22  2  1  0
  3  5  2  0
 21  3  1  0
  3 23  1  0
 23  4  2  0
  4 24  1  0
  5 25  1  0
  6  7  2  0
 17  6  1  0
  7 14  1  0
  7 26  1  0
 26  8  1  0
  8 27  1  0
 27  9  2  0
  9 28  1  0
 28 10  2  0
 10 29  1  0
 12 11  1  0
 12 13  2  0
 14 12  1  0
 15 14  2  0
 16 15  1  0
 17 16  2  0
 18 17  1  0
 18 19  1  0
 20 21  1  0
 24 25  2  0
 27 30  1  0
 29 30  2  0
M  CHG  1  13   1
M  END
$$$$
