
     RDKit          3D

 30 33  0  0  0  0  0  0  0  0999 V2000
   -6.3425  -16.0972   68.2475 C   0  0  0  0  0  0  0  0  0  0  0  0
   -6.8426  -14.2090   69.2115 C   0  0  0  0  0  0  0  0  0  0  0  0
   -9.2487  -13.9213   68.4182 C   0  0  0  0  0  0  0  0  0  0  0  0
  -10.6769  -12.0910   69.0594 C   0  0  0  0  0  0  0  0  0  0  0  0
  -10.2706  -14.3926   67.6320 C   0  0  0  0  0  0  0  0  0  0  0  0
   -3.6075  -15.6737   66.2393 C   0  0  0  0  0  0  0  0  0  0  0  0
   -2.6463  -14.9721   65.5630 C   0  0  0  0  0  0  0  0  0  0  0  0
   -2.4143  -13.2951   67.3449 C   0  0  0  0  0  0  0  0  0  0  0  0
   -1.4875  -11.7068   69.0502 C   0  0  0  0  0  0  0  0  0  0  0  0
    0.8190  -11.0772   68.9707 C   0  0  0  0  0  0  0  0  0  0  0  0
   -0.9263  -13.3724   63.8649 N   0  0  0  0  0  0  0  0  0  0  0  0
   -1.3649  -14.6511   63.4696 C   0  0  0  0  0  0  0  0  0  0  0  0
   -0.8827  -15.2034   62.4323 N   0  0  0  0  0  4  0  0  0  0  0  0
   -2.3695  -15.3321   64.2616 C   0  0  0  0  0  0  0  0  0  0  0  0
   -3.0732  -16.3873   63.6902 C   0  0  0  0  0  0  0  0  0  0  0  0
   -4.0297  -17.0715   64.3913 C   0  0  0  0  0  0  0  0  0  0  0  0
   -4.3311  -16.7403   65.6879 C   0  0  0  0  0  0  0  0  0  0  0  0
   -5.2954  -17.4265   66.4664 N   0  0  0  0  0  0  0  0  0  0  0  0
   -5.5077  -17.2760   67.8576 C   0  0  0  0  0  0  0  0  0  0  0  0
   -7.6014  -15.7700   67.9420 N   0  0  0  0  0  0  0  0  0  0  0  0
   -7.9655  -14.6018   68.5164 C   0  0  0  0  0  0  0  0  0  0  0  0
   -5.8727  -15.1045   69.0497 N   0  0  0  0  0  0  0  0  0  0  0  0
   -9.4538  -12.7676   69.1331 C   0  0  0  0  0  0  0  0  0  0  0  0
  -11.6900  -12.5796   68.2650 C   0  0  0  0  0  0  0  0  0  0  0  0
  -11.4890  -13.7324   67.5490 C   0  0  0  0  0  0  0  0  0  0  0  0
   -1.9926  -13.9435   66.1875 O   0  0  0  0  0  0  0  0  0  0  0  0
   -1.3084  -12.5055   67.9407 C   0  0  0  0  0  0  0  0  0  0  0  0
   -0.4248  -10.9985   69.5581 C   0  0  0  0  0  0  0  0  0  0  0  0
    0.9900  -11.8647   67.8789 N   0  0  0  0  0  0  0  0  0  0  0  0
   -0.0420  -12.5501   67.3890 C   0  0  0  0  0  0  0  0  0  0  0  0
 19  1  1  0
  1 20  2  0
  1 22  1  0
  2 21  2  0
 22  2  1  0
  3  5  2  0
 21  3  1  0
  3 23  1  0
 23  4  2  0
  4 24  1  0
  5 25  1  0
  6  7  2  0
 17  6  1  0
  7 14  1  0
  7 26  1  0
 26  8  1  0
  8 27  1  0
 27  9  2  0
  9 28  1  0
 28 10  2  0
 10 29  1  0
 12 11  1  0
 12 13  2  0
 14 12  1  0
 15 14  2  0
 16 15  1  0
 17 16  2  0
 18 17  1  0
 18 19  1  0
 20 21  1  0
 24 25  2  0
 27 30  1  0
 29 30  2  0
M  CHG  1  13   1
M  END
$$$$
