
     RDKit          3D

 30 33  0  0  0  0  0  0  0  0999 V2000
   -5.2707  -16.2542   68.1943 C   0  0  0  0  0  0  0  0  0  0  0  0
   -3.6274  -16.8964   69.4717 C   0  0  0  0  0  0  0  0  0  0  0  0
   -4.2197  -15.6620   71.6227 C   0  0  0  0  0  0  0  0  0  0  0  0
   -5.0717  -14.6028   73.6110 C   0  0  0  0  0  0  0  0  0  0  0  0
   -3.0582  -15.9231   72.3062 C   0  0  0  0  0  0  0  0  0  0  0  0
   -3.9014  -14.9556   65.3901 C   0  0  0  0  0  0  0  0  0  0  0  0
   -2.8676  -14.3683   64.7121 C   0  0  0  0  0  0  0  0  0  0  0  0
   -3.1193  -12.1041   65.6350 C   0  0  0  0  0  0  0  0  0  0  0  0
   -3.7978  -11.4553   67.9606 C   0  0  0  0  0  0  0  0  0  0  0  0
   -2.1836  -11.4681   69.7260 C   0  0  0  0  0  0  0  0  0  0  0  0
   -0.7538  -13.2013   63.1530 N   0  0  0  0  0  0  0  0  0  0  0  0
   -1.2652  -14.4728   62.8283 C   0  0  0  0  0  0  0  0  0  0  0  0
   -0.7682  -15.1389   61.8676 N   0  0  0  0  0  4  0  0  0  0  0  0
   -2.3620  -15.0151   63.6048 C   0  0  0  0  0  0  0  0  0  0  0  0
   -2.9185  -16.2314   63.2225 C   0  0  0  0  0  0  0  0  0  0  0  0
   -3.9525  -16.7953   63.9206 C   0  0  0  0  0  0  0  0  0  0  0  0
   -4.4805  -16.1794   65.0267 C   0  0  0  0  0  0  0  0  0  0  0  0
   -5.5352  -16.7269   65.7980 N   0  0  0  0  0  0  0  0  0  0  0  0
   -6.1076  -16.1531   66.9582 C   0  0  0  0  0  0  0  0  0  0  0  0
   -5.4099  -15.6957   69.4001 N   0  0  0  0  0  0  0  0  0  0  0  0
   -4.4130  -16.0617   70.2363 C   0  0  0  0  0  0  0  0  0  0  0  0
   -4.1417  -17.0104   68.2505 N   0  0  0  0  0  0  0  0  0  0  0  0
   -5.2280  -15.0001   72.2780 C   0  0  0  0  0  0  0  0  0  0  0  0
   -3.8989  -14.8739   74.2798 C   0  0  0  0  0  0  0  0  0  0  0  0
   -2.8887  -15.5352   73.6284 C   0  0  0  0  0  0  0  0  0  0  0  0
   -2.3682  -13.1686   65.1443 O   0  0  0  0  0  0  0  0  0  0  0  0
   -2.8296  -11.8712   67.0714 C   0  0  0  0  0  0  0  0  0  0  0  0
   -3.4700  -11.2565   69.2804 C   0  0  0  0  0  0  0  0  0  0  0  0
   -1.2344  -11.8774   68.8468 N   0  0  0  0  0  0  0  0  0  0  0  0
   -1.5552  -12.0693   67.5682 C   0  0  0  0  0  0  0  0  0  0  0  0
 19  1  1  0
  1 20  2  0
  1 22  1  0
  2 21  2  0
 22  2  1  0
  3  5  2  0
 21  3  1  0
  3 23  1  0
 23  4  2  0
  4 24  1  0
  5 25  1  0
  6  7  2  0
 17  6  1  0
  7 14  1  0
  7 26  1  0
 26  8  1  0
  8 27  1  0
 27  9  2  0
  9 28  1  0
 28 10  2  0
 10 29  1  0
 12 11  1  0
 12 13  2  0
 14 12  1  0
 15 14  2  0
 16 15  1  0
 17 16  2  0
 18 17  1  0
 18 19  1  0
 20 21  1  0
 24 25  2  0
 27 30  1  0
 29 30  2  0
M  CHG  1  13   1
M  END
$$$$
