
     RDKit          3D

 30 33  0  0  0  0  0  0  0  0999 V2000
   -6.6327  -16.7761   67.5605 C   0  0  0  0  0  0  0  0  0  0  0  0
   -8.6796  -17.5802   67.7918 C   0  0  0  0  0  0  0  0  0  0  0  0
   -9.9938  -15.4073   67.8002 C   0  0  0  0  0  0  0  0  0  0  0  0
  -11.1173  -13.2860   67.6093 C   0  0  0  0  0  0  0  0  0  0  0  0
  -11.2002  -15.9777   68.1215 C   0  0  0  0  0  0  0  0  0  0  0  0
   -3.6558  -15.2081   65.5260 C   0  0  0  0  0  0  0  0  0  0  0  0
   -2.7680  -14.5205   64.7076 C   0  0  0  0  0  0  0  0  0  0  0  0
   -3.2972  -12.3028   65.6772 C   0  0  0  0  0  0  0  0  0  0  0  0
   -1.5289  -12.7326   67.3545 C   0  0  0  0  0  0  0  0  0  0  0  0
   -1.9142  -12.5258   69.7135 C   0  0  0  0  0  0  0  0  0  0  0  0
   -1.0680  -13.0965   62.9983 N   0  0  0  0  0  0  0  0  0  0  0  0
   -1.2193  -14.4897   62.8465 C   0  0  0  0  0  0  0  0  0  0  0  0
   -0.5629  -15.1137   61.9593 N   0  0  0  0  0  4  0  0  0  0  0  0
   -2.1382  -15.1942   63.7114 C   0  0  0  0  0  0  0  0  0  0  0  0
   -2.3595  -16.5671   63.4860 C   0  0  0  0  0  0  0  0  0  0  0  0
   -3.2408  -17.2391   64.3023 C   0  0  0  0  0  0  0  0  0  0  0  0
   -3.8865  -16.5511   65.3224 C   0  0  0  0  0  0  0  0  0  0  0  0
   -4.7916  -17.2746   66.1494 N   0  0  0  0  0  0  0  0  0  0  0  0
   -5.1630  -16.7065   67.4210 C   0  0  0  0  0  0  0  0  0  0  0  0
   -7.5161  -15.7613   67.5893 N   0  0  0  0  0  0  0  0  0  0  0  0
   -8.7714  -16.2054   67.7286 C   0  0  0  0  0  0  0  0  0  0  0  0
   -7.3771  -17.8965   67.6878 N   0  0  0  0  0  0  0  0  0  0  0  0
   -9.9513  -14.0548   67.5427 C   0  0  0  0  0  0  0  0  0  0  0  0
  -12.3124  -13.8712   67.9313 C   0  0  0  0  0  0  0  0  0  0  0  0
  -12.3782  -15.2281   68.1938 C   0  0  0  0  0  0  0  0  0  0  0  0
   -2.5518  -13.1974   64.9235 O   0  0  0  0  0  0  0  0  0  0  0  0
   -2.8361  -12.3729   67.0955 C   0  0  0  0  0  0  0  0  0  0  0  0
   -1.0793  -12.8063   68.6526 C   0  0  0  0  0  0  0  0  0  0  0  0
   -3.1771  -12.1807   69.4050 N   0  0  0  0  0  0  0  0  0  0  0  0
   -3.6496  -12.0985   68.1573 C   0  0  0  0  0  0  0  0  0  0  0  0
 19  1  1  0
  1 20  2  0
  1 22  1  0
  2 21  2  0
 22  2  1  0
  3  5  2  0
 21  3  1  0
  3 23  1  0
 23  4  2  0
  4 24  1  0
  5 25  1  0
  6  7  2  0
 17  6  1  0
  7 14  1  0
  7 26  1  0
  8 26  1  1
  8 27  1  0
 27  9  2  0
  9 28  1  0
 28 10  2  0
 10 29  1  0
 12 11  1  0
 12 13  2  0
 14 12  1  0
 15 14  2  0
 16 15  1  0
 17 16  2  0
 18 17  1  0
 19 18  1  6
 20 21  1  0
 24 25  2  0
 27 30  1  0
 29 30  2  0
M  CHG  1  13   1
M  END
$$$$
