
     RDKit          3D

 30 33  0  0  0  0  0  0  0  0999 V2000
   -4.7612  -16.4105   68.3141 C   0  0  0  0  0  0  0  0  0  0  0  0
   -3.2881  -17.7611   69.1806 C   0  0  0  0  0  0  0  0  0  0  0  0
   -3.4066  -17.0485   71.6259 C   0  0  0  0  0  0  0  0  0  0  0  0
   -1.8337  -17.6915   73.3329 C   0  0  0  0  0  0  0  0  0  0  0  0
   -4.2108  -16.5370   72.6140 C   0  0  0  0  0  0  0  0  0  0  0  0
   -3.4498  -14.6732   65.5036 C   0  0  0  0  0  0  0  0  0  0  0  0
   -2.3369  -14.2535   64.8262 C   0  0  0  0  0  0  0  0  0  0  0  0
   -2.2812  -11.9313   65.6300 C   0  0  0  0  0  0  0  0  0  0  0  0
   -1.6050  -12.4804   67.9818 C   0  0  0  0  0  0  0  0  0  0  0  0
   -2.9892  -11.8080   69.8133 C   0  0  0  0  0  0  0  0  0  0  0  0
   -0.1237  -13.3868   63.2015 N   0  0  0  0  0  0  0  0  0  0  0  0
   -0.7438  -14.6300   62.9695 C   0  0  0  0  0  0  0  0  0  0  0  0
   -0.2805  -15.4255   62.0942 N   0  0  0  0  0  4  0  0  0  0  0  0
   -1.9139  -14.9937   63.7432 C   0  0  0  0  0  0  0  0  0  0  0  0
   -2.6299  -16.1309   63.3833 C   0  0  0  0  0  0  0  0  0  0  0  0
   -3.7399  -16.5270   64.0801 C   0  0  0  0  0  0  0  0  0  0  0  0
   -4.1894  -15.8142   65.1625 C   0  0  0  0  0  0  0  0  0  0  0  0
   -5.3185  -16.1891   65.9317 N   0  0  0  0  0  0  0  0  0  0  0  0
   -5.6042  -15.7744   67.2544 C   0  0  0  0  0  0  0  0  0  0  0  0
   -4.6786  -16.1830   69.6282 N   0  0  0  0  0  0  0  0  0  0  0  0
   -3.7753  -16.9970   70.2185 C   0  0  0  0  0  0  0  0  0  0  0  0
   -3.8788  -17.4090   68.0422 N   0  0  0  0  0  0  0  0  0  0  0  0
   -2.2155  -17.6269   71.9878 C   0  0  0  0  0  0  0  0  0  0  0  0
   -2.6541  -17.1728   74.3096 C   0  0  0  0  0  0  0  0  0  0  0  0
   -3.8454  -16.5939   73.9521 C   0  0  0  0  0  0  0  0  0  0  0  0
   -1.6804  -13.1234   65.2355 O   0  0  0  0  0  0  0  0  0  0  0  0
   -2.4953  -11.9082   67.0980 C   0  0  0  0  0  0  0  0  0  0  0  0
   -1.8565  -12.4272   69.3319 C   0  0  0  0  0  0  0  0  0  0  0  0
   -3.8623  -11.2465   68.9393 N   0  0  0  0  0  0  0  0  0  0  0  0
   -3.6158  -11.2997   67.6312 C   0  0  0  0  0  0  0  0  0  0  0  0
 19  1  1  0
  1 20  2  0
  1 22  1  0
  2 21  2  0
 22  2  1  0
  3  5  2  0
 21  3  1  0
  3 23  1  0
 23  4  2  0
  4 24  1  0
  5 25  1  0
  6  7  2  0
 17  6  1  0
  7 14  1  0
  7 26  1  0
 26  8  1  0
  8 27  1  0
 27  9  2  0
  9 28  1  0
 28 10  2  0
 10 29  1  0
 12 11  1  0
 12 13  2  0
 14 12  1  0
 15 14  2  0
 16 15  1  0
 17 16  2  0
 18 17  1  0
 18 19  1  0
 20 21  1  0
 24 25  2  0
 27 30  1  0
 29 30  2  0
M  CHG  1  13   1
M  END
$$$$
