
     RDKit          3D

 30 33  0  0  0  0  0  0  0  0999 V2000
   -4.5478  -11.9724   68.3494 C   0  0  0  0  0  0  0  0  0  0  0  0
   -6.5194  -11.1821   67.7347 C   0  0  0  0  0  0  0  0  0  0  0  0
   -8.0338  -12.7989   68.9763 C   0  0  0  0  0  0  0  0  0  0  0  0
   -9.3317  -14.4648   70.1332 C   0  0  0  0  0  0  0  0  0  0  0  0
   -9.2073  -12.1830   68.6192 C   0  0  0  0  0  0  0  0  0  0  0  0
   -3.0534  -13.8606   66.2317 C   0  0  0  0  0  0  0  0  0  0  0  0
   -2.9434  -14.7690   65.1859 C   0  0  0  0  0  0  0  0  0  0  0  0
   -4.6895  -16.2868   66.0722 C   0  0  0  0  0  0  0  0  0  0  0  0
   -5.0646  -17.7652   68.0212 C   0  0  0  0  0  0  0  0  0  0  0  0
   -3.2599  -18.7761   69.2367 C   0  0  0  0  0  0  0  0  0  0  0  0
   -1.1318  -15.1026   61.9831 N   0  0  0  0  0  0  0  0  0  0  0  0
   -2.0139  -15.4011   63.0413 C   0  0  0  0  0  0  0  0  0  0  0  0
   -2.6867  -16.4757   63.0322 N   0  0  0  0  0  4  0  0  0  0  0  0
   -2.1453  -14.4616   64.1316 C   0  0  0  0  0  0  0  0  0  0  0  0
   -1.4284  -13.2505   64.0693 C   0  0  0  0  0  0  0  0  0  0  0  0
   -1.5443  -12.3574   65.1102 C   0  0  0  0  0  0  0  0  0  0  0  0
   -2.3606  -12.6703   66.1903 C   0  0  0  0  0  0  0  0  0  0  0  0
   -2.4595  -11.7256   67.2506 N   0  0  0  0  0  0  0  0  0  0  0  0
   -3.0852  -12.1388   68.4816 C   0  0  0  0  0  0  0  0  0  0  0  0
   -5.5245  -12.7070   68.9128 N   0  0  0  0  0  0  0  0  0  0  0  0
   -6.7382  -12.2611   68.5656 C   0  0  0  0  0  0  0  0  0  0  0  0
   -5.1884  -11.0309   67.6220 N   0  0  0  0  0  0  0  0  0  0  0  0
   -8.0954  -13.9456   69.7371 C   0  0  0  0  0  0  0  0  0  0  0  0
  -10.4928  -13.8377   69.7682 C   0  0  0  0  0  0  0  0  0  0  0  0
  -10.4542  -12.6848   69.0043 C   0  0  0  0  0  0  0  0  0  0  0  0
   -3.6343  -15.9365   65.2428 O   0  0  0  0  0  0  0  0  0  0  0  0
   -4.1667  -17.1530   67.1701 C   0  0  0  0  0  0  0  0  0  0  0  0
   -4.6088  -18.5672   69.0419 C   0  0  0  0  0  0  0  0  0  0  0  0
   -2.4294  -18.1561   68.3793 N   0  0  0  0  0  0  0  0  0  0  0  0
   -2.8346  -17.3704   67.3769 C   0  0  0  0  0  0  0  0  0  0  0  0
 19  1  1  0
  1 20  2  0
  1 22  1  0
  2 21  2  0
 22  2  1  0
  3  5  2  0
 21  3  1  0
  3 23  1  0
 23  4  2  0
  4 24  1  0
  5 25  1  0
  6  7  2  0
 17  6  1  0
  7 14  1  0
  7 26  1  0
  8 26  1  1
  8 27  1  0
 27  9  2  0
  9 28  1  0
 28 10  2  0
 10 29  1  0
 12 11  1  0
 12 13  2  0
 14 12  1  0
 15 14  2  0
 16 15  1  0
 17 16  2  0
 18 17  1  0
 19 18  1  6
 20 21  1  0
 24 25  2  0
 27 30  1  0
 29 30  2  0
M  CHG  1  13   1
M  END
$$$$
