
     RDKit          3D

 30 33  0  0  0  0  0  0  0  0999 V2000
   -6.3942  -15.3668   68.1433 C   0  0  0  0  0  0  0  0  0  0  0  0
   -6.5733  -13.2425   68.7309 C   0  0  0  0  0  0  0  0  0  0  0  0
   -7.3585  -13.5272   71.1290 C   0  0  0  0  0  0  0  0  0  0  0  0
   -7.9810  -11.7118   72.5833 C   0  0  0  0  0  0  0  0  0  0  0  0
   -7.5527  -14.3891   72.1795 C   0  0  0  0  0  0  0  0  0  0  0  0
   -3.8366  -15.4122   66.0392 C   0  0  0  0  0  0  0  0  0  0  0  0
   -2.6266  -15.1439   65.4109 C   0  0  0  0  0  0  0  0  0  0  0  0
   -1.6226  -14.0670   67.4035 C   0  0  0  0  0  0  0  0  0  0  0  0
   -1.5604  -16.4377   68.1115 C   0  0  0  0  0  0  0  0  0  0  0  0
   -2.4847  -17.1837   70.1960 C   0  0  0  0  0  0  0  0  0  0  0  0
   -1.0446  -15.6262   62.1158 N   0  0  0  0  0  0  0  0  0  0  0  0
   -1.2542  -15.1240   63.4161 C   0  0  0  0  0  0  0  0  0  0  0  0
   -0.3559  -14.4394   63.9923 N   0  0  0  0  0  4  0  0  0  0  0  0
   -2.5038  -15.4069   64.0847 C   0  0  0  0  0  0  0  0  0  0  0  0
   -3.5664  -15.9432   63.3311 C   0  0  0  0  0  0  0  0  0  0  0  0
   -4.7608  -16.2055   63.9628 C   0  0  0  0  0  0  0  0  0  0  0  0
   -4.8884  -15.9367   65.3202 C   0  0  0  0  0  0  0  0  0  0  0  0
   -6.1363  -16.2195   65.9443 N   0  0  0  0  0  0  0  0  0  0  0  0
   -6.1393  -16.5806   67.3397 C   0  0  0  0  0  0  0  0  0  0  0  0
   -6.8109  -15.2848   69.4203 N   0  0  0  0  0  0  0  0  0  0  0  0
   -6.9329  -14.0122   69.8175 C   0  0  0  0  0  0  0  0  0  0  0  0
   -6.2530  -14.0865   67.7348 N   0  0  0  0  0  0  0  0  0  0  0  0
   -7.5735  -12.1817   71.3311 C   0  0  0  0  0  0  0  0  0  0  0  0
   -8.1700  -12.5854   73.6205 C   0  0  0  0  0  0  0  0  0  0  0  0
   -7.9599  -13.9409   73.4398 C   0  0  0  0  0  0  0  0  0  0  0  0
   -1.6003  -14.6282   66.1352 O   0  0  0  0  0  0  0  0  0  0  0  0
   -1.9334  -15.1393   68.3949 C   0  0  0  0  0  0  0  0  0  0  0  0
   -1.8364  -17.4446   69.0074 C   0  0  0  0  0  0  0  0  0  0  0  0
   -2.8256  -15.9023   70.4219 N   0  0  0  0  0  0  0  0  0  0  0  0
   -2.5745  -14.8982   69.5761 C   0  0  0  0  0  0  0  0  0  0  0  0
 19  1  1  0
  1 20  2  0
  1 22  1  0
  2 21  2  0
 22  2  1  0
  3  5  2  0
 21  3  1  0
  3 23  1  0
 23  4  2  0
  4 24  1  0
  5 25  1  0
  6  7  2  0
 17  6  1  0
  7 14  1  0
  7 26  1  0
  8 26  1  1
  8 27  1  0
 27  9  2  0
  9 28  1  0
 28 10  2  0
 10 29  1  0
 12 11  1  0
 12 13  2  0
 14 12  1  0
 15 14  2  0
 16 15  1  0
 17 16  2  0
 18 17  1  0
 19 18  1  6
 20 21  1  0
 24 25  2  0
 27 30  1  0
 29 30  2  0
M  CHG  1  13   1
M  END
$$$$
