
     RDKit          3D

 30 33  0  0  0  0  0  0  0  0999 V2000
   -5.3468  -15.4817   68.2315 C   0  0  0  0  0  0  0  0  0  0  0  0
   -6.5221  -13.6549   68.3926 C   0  0  0  0  0  0  0  0  0  0  0  0
   -5.5342  -12.6702   70.5271 C   0  0  0  0  0  0  0  0  0  0  0  0
   -6.3000  -10.6342   71.5612 C   0  0  0  0  0  0  0  0  0  0  0  0
   -4.5732  -12.7589   71.5033 C   0  0  0  0  0  0  0  0  0  0  0  0
   -3.4613  -15.0527   65.6055 C   0  0  0  0  0  0  0  0  0  0  0  0
   -2.5808  -14.4203   64.7698 C   0  0  0  0  0  0  0  0  0  0  0  0
   -2.7089  -12.1871   65.7885 C   0  0  0  0  0  0  0  0  0  0  0  0
   -1.0889  -12.6783   67.6389 C   0  0  0  0  0  0  0  0  0  0  0  0
   -1.3371  -11.6064   69.7631 C   0  0  0  0  0  0  0  0  0  0  0  0
   -0.8580  -15.2119   61.5581 N   0  0  0  0  0  0  0  0  0  0  0  0
   -1.3464  -14.4318   62.6243 C   0  0  0  0  0  0  0  0  0  0  0  0
   -0.9825  -13.2217   62.7543 N   0  0  0  0  0  4  0  0  0  0  0  0
   -2.2719  -15.0235   63.5696 C   0  0  0  0  0  0  0  0  0  0  0  0
   -2.8631  -16.2432   63.2566 C   0  0  0  0  0  0  0  0  0  0  0  0
   -3.7407  -16.8528   64.1127 C   0  0  0  0  0  0  0  0  0  0  0  0
   -4.0711  -16.2810   65.3150 C   0  0  0  0  0  0  0  0  0  0  0  0
   -4.9561  -16.8767   66.2473 N   0  0  0  0  0  0  0  0  0  0  0  0
   -4.8746  -16.7799   67.6569 C   0  0  0  0  0  0  0  0  0  0  0  0
   -4.9633  -14.8094   69.3206 N   0  0  0  0  0  0  0  0  0  0  0  0
   -5.6630  -13.6626   69.4698 C   0  0  0  0  0  0  0  0  0  0  0  0
   -6.3317  -14.7436   67.6529 N   0  0  0  0  0  0  0  0  0  0  0  0
   -6.3991  -11.6046   70.5574 C   0  0  0  0  0  0  0  0  0  0  0  0
   -5.3291  -10.7407   72.5319 C   0  0  0  0  0  0  0  0  0  0  0  0
   -4.4628  -11.8042   72.5050 C   0  0  0  0  0  0  0  0  0  0  0  0
   -2.0363  -13.2200   65.1417 O   0  0  0  0  0  0  0  0  0  0  0  0
   -2.2004  -12.0099   67.1710 C   0  0  0  0  0  0  0  0  0  0  0  0
   -0.6643  -12.4732   68.9298 C   0  0  0  0  0  0  0  0  0  0  0  0
   -2.4305  -10.9511   69.2978 N   0  0  0  0  0  0  0  0  0  0  0  0
   -2.8396  -11.1519   68.0460 C   0  0  0  0  0  0  0  0  0  0  0  0
 19  1  1  0
  1 20  2  0
  1 22  1  0
  2 21  2  0
 22  2  1  0
  3  5  2  0
 21  3  1  0
  3 23  1  0
 23  4  2  0
  4 24  1  0
  5 25  1  0
  6  7  2  0
 17  6  1  0
  7 14  1  0
  7 26  1  0
 26  8  1  0
  8 27  1  0
 27  9  2  0
  9 28  1  0
 28 10  2  0
 10 29  1  0
 12 11  1  0
 12 13  2  0
 14 12  1  0
 15 14  2  0
 16 15  1  0
 17 16  2  0
 18 17  1  0
 18 19  1  0
 20 21  1  0
 24 25  2  0
 27 30  1  0
 29 30  2  0
M  CHG  1  13   1
M  END
$$$$
