
     RDKit          3D

 30 33  0  0  0  0  0  0  0  0999 V2000
   -7.1074  -16.2927   67.6243 C   0  0  0  0  0  0  0  0  0  0  0  0
   -8.1856  -14.4598   68.0960 C   0  0  0  0  0  0  0  0  0  0  0  0
  -10.4345  -14.9667   67.0066 C   0  0  0  0  0  0  0  0  0  0  0  0
  -12.4900  -15.6780   65.9722 C   0  0  0  0  0  0  0  0  0  0  0  0
  -11.0342  -13.7625   67.2804 C   0  0  0  0  0  0  0  0  0  0  0  0
   -3.6789  -14.8348   66.2703 C   0  0  0  0  0  0  0  0  0  0  0  0
   -3.0346  -14.2920   65.1915 C   0  0  0  0  0  0  0  0  0  0  0  0
   -3.1911  -12.0129   66.0986 C   0  0  0  0  0  0  0  0  0  0  0  0
   -2.8741  -11.9732   68.5861 C   0  0  0  0  0  0  0  0  0  0  0  0
   -0.6682  -11.9640   69.5117 C   0  0  0  0  0  0  0  0  0  0  0  0
   -1.7772  -15.5249   61.8928 N   0  0  0  0  0  0  0  0  0  0  0  0
   -2.0265  -14.6368   62.9572 C   0  0  0  0  0  0  0  0  0  0  0  0
   -1.6567  -13.4239   62.8819 N   0  0  0  0  0  4  0  0  0  0  0  0
   -2.7133  -15.1207   64.1380 C   0  0  0  0  0  0  0  0  0  0  0  0
   -3.0541  -16.4674   64.2119 C   0  0  0  0  0  0  0  0  0  0  0  0
   -3.6986  -16.9828   65.3044 C   0  0  0  0  0  0  0  0  0  0  0  0
   -4.0339  -16.1872   66.3705 C   0  0  0  0  0  0  0  0  0  0  0  0
   -4.6816  -16.6708   67.5339 N   0  0  0  0  0  0  0  0  0  0  0  0
   -5.9669  -17.2605   67.5913 C   0  0  0  0  0  0  0  0  0  0  0  0
   -8.3432  -16.3705   67.1223 N   0  0  0  0  0  0  0  0  0  0  0  0
   -9.0591  -15.2550   67.3868 C   0  0  0  0  0  0  0  0  0  0  0  0
   -7.0186  -15.0818   68.2371 N   0  0  0  0  0  0  0  0  0  0  0  0
  -11.1655  -15.9258   66.3508 C   0  0  0  0  0  0  0  0  0  0  0  0
  -13.0741  -14.4637   66.2557 C   0  0  0  0  0  0  0  0  0  0  0  0
  -12.3469  -13.5024   66.9110 C   0  0  0  0  0  0  0  0  0  0  0  0
   -2.7297  -12.9569   65.1855 O   0  0  0  0  0  0  0  0  0  0  0  0
   -2.3412  -11.9950   67.3146 C   0  0  0  0  0  0  0  0  0  0  0  0
   -2.0362  -11.9579   69.6754 C   0  0  0  0  0  0  0  0  0  0  0  0
   -0.1488  -11.9855   68.2582 N   0  0  0  0  0  0  0  0  0  0  0  0
   -0.9635  -12.0003   67.2043 C   0  0  0  0  0  0  0  0  0  0  0  0
 19  1  1  0
  1 20  2  0
  1 22  1  0
  2 21  2  0
 22  2  1  0
  3  5  2  0
 21  3  1  0
  3 23  1  0
 23  4  2  0
  4 24  1  0
  5 25  1  0
  6  7  2  0
 17  6  1  0
  7 14  1  0
  7 26  1  0
 26  8  1  0
  8 27  1  0
 27  9  2  0
  9 28  1  0
 28 10  2  0
 10 29  1  0
 12 11  1  0
 12 13  2  0
 14 12  1  0
 15 14  2  0
 16 15  1  0
 17 16  2  0
 18 17  1  0
 18 19  1  0
 20 21  1  0
 24 25  2  0
 27 30  1  0
 29 30  2  0
M  CHG  1  13   1
M  END
$$$$
