
     RDKit          3D

 30 33  0  0  0  0  0  0  0  0999 V2000
   -7.0500  -16.2070   67.5137 C   0  0  0  0  0  0  0  0  0  0  0  0
   -8.2090  -14.3527   67.8425 C   0  0  0  0  0  0  0  0  0  0  0  0
  -10.4653  -15.0939   66.9434 C   0  0  0  0  0  0  0  0  0  0  0  0
  -12.4542  -13.7367   66.9741 C   0  0  0  0  0  0  0  0  0  0  0  0
  -11.1803  -16.0650   66.2878 C   0  0  0  0  0  0  0  0  0  0  0  0
   -3.4384  -14.8141   66.2930 C   0  0  0  0  0  0  0  0  0  0  0  0
   -2.7930  -14.4500   65.1175 C   0  0  0  0  0  0  0  0  0  0  0  0
   -2.6720  -12.0082   65.5189 C   0  0  0  0  0  0  0  0  0  0  0  0
   -1.1509  -12.0210   67.4711 C   0  0  0  0  0  0  0  0  0  0  0  0
   -1.9541  -11.9259   69.7298 C   0  0  0  0  0  0  0  0  0  0  0  0
   -1.5972  -13.6560   62.7130 N   0  0  0  0  0  0  0  0  0  0  0  0
   -2.0941  -14.9672   62.8576 C   0  0  0  0  0  0  0  0  0  0  0  0
   -1.9692  -15.8082   61.9171 N   0  0  0  0  0  4  0  0  0  0  0  0
   -2.7537  -15.3358   64.0895 C   0  0  0  0  0  0  0  0  0  0  0  0
   -3.3474  -16.6101   64.1823 C   0  0  0  0  0  0  0  0  0  0  0  0
   -3.9842  -16.9611   65.3510 C   0  0  0  0  0  0  0  0  0  0  0  0
   -4.0256  -16.0556   66.4042 C   0  0  0  0  0  0  0  0  0  0  0  0
   -4.6913  -16.4488   67.5995 N   0  0  0  0  0  0  0  0  0  0  0  0
   -5.9323  -17.1735   67.4870 C   0  0  0  0  0  0  0  0  0  0  0  0
   -8.3160  -16.3850   67.0934 N   0  0  0  0  0  0  0  0  0  0  0  0
   -9.0544  -15.2830   67.2748 C   0  0  0  0  0  0  0  0  0  0  0  0
   -7.0060  -14.9377   67.9751 N   0  0  0  0  0  0  0  0  0  0  0  0
  -11.1047  -13.9237   67.2886 C   0  0  0  0  0  0  0  0  0  0  0  0
  -13.1525  -14.7159   66.3197 C   0  0  0  0  0  0  0  0  0  0  0  0
  -12.5302  -15.8992   65.9635 C   0  0  0  0  0  0  0  0  0  0  0  0
   -2.2188  -13.2230   65.0258 O   0  0  0  0  0  0  0  0  0  0  0  0
   -2.4455  -11.9771   66.9943 C   0  0  0  0  0  0  0  0  0  0  0  0
   -0.9150  -11.9953   68.8262 C   0  0  0  0  0  0  0  0  0  0  0  0
   -3.1947  -11.8854   69.2118 N   0  0  0  0  0  0  0  0  0  0  0  0
   -3.4629  -11.9085   67.9025 C   0  0  0  0  0  0  0  0  0  0  0  0
 19  1  1  0
  1 20  2  0
  1 22  1  0
  2 21  2  0
 22  2  1  0
  3  5  2  0
 21  3  1  0
  3 23  1  0
 23  4  2  0
  4 24  1  0
  5 25  1  0
  6  7  2  0
 17  6  1  0
  7 14  1  0
  7 26  1  0
  8 26  1  1
  8 27  1  0
 27  9  2  0
  9 28  1  0
 28 10  2  0
 10 29  1  0
 12 11  1  0
 12 13  2  0
 14 12  1  0
 15 14  2  0
 16 15  1  0
 17 16  2  0
 18 17  1  0
 19 18  1  6
 20 21  1  0
 24 25  2  0
 27 30  1  0
 29 30  2  0
M  CHG  1  13   1
M  END
$$$$
