
     RDKit          3D

 30 33  0  0  0  0  0  0  0  0999 V2000
   -5.9503  -16.0202   68.0596 C   0  0  0  0  0  0  0  0  0  0  0  0
   -7.4758  -14.4930   67.7673 C   0  0  0  0  0  0  0  0  0  0  0  0
   -7.1507  -13.1189   69.8904 C   0  0  0  0  0  0  0  0  0  0  0  0
   -8.5084  -11.2256   70.5012 C   0  0  0  0  0  0  0  0  0  0  0  0
   -6.3966  -12.8919   71.0148 C   0  0  0  0  0  0  0  0  0  0  0  0
   -3.5347  -15.4819   65.9446 C   0  0  0  0  0  0  0  0  0  0  0  0
   -2.6777  -14.7167   65.2005 C   0  0  0  0  0  0  0  0  0  0  0  0
   -2.0243  -13.2029   67.0234 C   0  0  0  0  0  0  0  0  0  0  0  0
   -2.1497  -10.7977   66.3239 C   0  0  0  0  0  0  0  0  0  0  0  0
   -2.8215   -9.1266   67.8983 C   0  0  0  0  0  0  0  0  0  0  0  0
   -1.0654  -13.1176   63.4245 N   0  0  0  0  0  0  0  0  0  0  0  0
   -1.3588  -14.4615   63.1215 C   0  0  0  0  0  0  0  0  0  0  0  0
   -0.8290  -15.0230   62.1126 N   0  0  0  0  0  4  0  0  0  0  0  0
   -2.2685  -15.1984   63.9756 C   0  0  0  0  0  0  0  0  0  0  0  0
   -2.7393  -16.4350   63.5464 C   0  0  0  0  0  0  0  0  0  0  0  0
   -3.5961  -17.1789   64.3127 C   0  0  0  0  0  0  0  0  0  0  0  0
   -4.0242  -16.7304   65.5363 C   0  0  0  0  0  0  0  0  0  0  0  0
   -4.8927  -17.4669   66.3791 N   0  0  0  0  0  0  0  0  0  0  0  0
   -5.1229  -17.2289   67.7552 C   0  0  0  0  0  0  0  0  0  0  0  0
   -5.9341  -15.1809   69.0992 N   0  0  0  0  0  0  0  0  0  0  0  0
   -6.8648  -14.2093   68.9692 C   0  0  0  0  0  0  0  0  0  0  0  0
   -6.9278  -15.5764   67.2245 N   0  0  0  0  0  0  0  0  0  0  0  0
   -8.2088  -12.2829   69.6342 C   0  0  0  0  0  0  0  0  0  0  0  0
   -7.7402  -11.0141   71.6242 C   0  0  0  0  0  0  0  0  0  0  0  0
   -6.6817  -11.8474   71.8837 C   0  0  0  0  0  0  0  0  0  0  0  0
   -2.2542  -13.5077   65.6847 O   0  0  0  0  0  0  0  0  0  0  0  0
   -2.2933  -11.7687   67.2922 C   0  0  0  0  0  0  0  0  0  0  0  0
   -2.4141   -9.4847   66.6318 C   0  0  0  0  0  0  0  0  0  0  0  0
   -2.9613  -10.0861   68.8477 N   0  0  0  0  0  0  0  0  0  0  0  0
   -2.7043  -11.3580   68.5462 C   0  0  0  0  0  0  0  0  0  0  0  0
 19  1  1  0
  1 20  2  0
  1 22  1  0
  2 21  2  0
 22  2  1  0
  3  5  2  0
 21  3  1  0
  3 23  1  0
 23  4  2  0
  4 24  1  0
  5 25  1  0
  6  7  2  0
 17  6  1  0
  7 14  1  0
  7 26  1  0
 26  8  1  0
  8 27  1  0
 27  9  2  0
  9 28  1  0
 28 10  2  0
 10 29  1  0
 12 11  1  0
 12 13  2  0
 14 12  1  0
 15 14  2  0
 16 15  1  0
 17 16  2  0
 18 17  1  0
 18 19  1  0
 20 21  1  0
 24 25  2  0
 27 30  1  0
 29 30  2  0
M  CHG  1  13   1
M  END
$$$$
