
     RDKit          3D

 30 33  0  0  0  0  0  0  0  0999 V2000
   -6.7021  -16.2971   67.8623 C   0  0  0  0  0  0  0  0  0  0  0  0
   -8.0169  -14.8377   68.8779 C   0  0  0  0  0  0  0  0  0  0  0  0
  -10.1081  -15.0866   67.4588 C   0  0  0  0  0  0  0  0  0  0  0  0
  -12.1700  -13.9089   67.8586 C   0  0  0  0  0  0  0  0  0  0  0  0
  -10.6893  -15.6580   66.3545 C   0  0  0  0  0  0  0  0  0  0  0  0
   -3.7127  -15.6517   65.9140 C   0  0  0  0  0  0  0  0  0  0  0  0
   -2.7341  -15.0107   65.1643 C   0  0  0  0  0  0  0  0  0  0  0  0
   -1.7319  -13.8100   67.0858 C   0  0  0  0  0  0  0  0  0  0  0  0
   -3.5587  -12.1538   66.8730 C   0  0  0  0  0  0  0  0  0  0  0  0
   -3.6333  -10.1439   68.1808 C   0  0  0  0  0  0  0  0  0  0  0  0
   -0.9321  -13.5509   63.5816 N   0  0  0  0  0  0  0  0  0  0  0  0
   -1.5442  -14.7157   63.0762 C   0  0  0  0  0  0  0  0  0  0  0  0
   -1.2189  -15.1693   61.9377 N   0  0  0  0  0  4  0  0  0  0  0  0
   -2.5519  -15.3803   63.8707 C   0  0  0  0  0  0  0  0  0  0  0  0
   -3.3255  -16.3931   63.2704 C   0  0  0  0  0  0  0  0  0  0  0  0
   -4.2923  -17.0220   64.0217 C   0  0  0  0  0  0  0  0  0  0  0  0
   -4.4803  -16.6448   65.3458 C   0  0  0  0  0  0  0  0  0  0  0  0
   -5.4877  -17.3146   66.0961 N   0  0  0  0  0  0  0  0  0  0  0  0
   -5.5226  -17.1208   67.5240 C   0  0  0  0  0  0  0  0  0  0  0  0
   -7.9011  -16.2678   67.2518 N   0  0  0  0  0  0  0  0  0  0  0  0
   -8.7301  -15.3945   67.8369 C   0  0  0  0  0  0  0  0  0  0  0  0
   -6.7963  -15.4011   68.8693 N   0  0  0  0  0  0  0  0  0  0  0  0
  -10.8514  -14.2076   68.2152 C   0  0  0  0  0  0  0  0  0  0  0  0
  -12.7343  -14.4879   66.7537 C   0  0  0  0  0  0  0  0  0  0  0  0
  -12.0059  -15.3737   65.9796 C   0  0  0  0  0  0  0  0  0  0  0  0
   -1.9860  -14.0351   65.7408 O   0  0  0  0  0  0  0  0  0  0  0  0
   -2.3788  -12.5250   67.4855 C   0  0  0  0  0  0  0  0  0  0  0  0
   -4.1742  -10.9740   67.2219 C   0  0  0  0  0  0  0  0  0  0  0  0
   -2.4833  -10.5533   68.7457 N   0  0  0  0  0  0  0  0  0  0  0  0
   -1.8566  -11.6917   68.4328 C   0  0  0  0  0  0  0  0  0  0  0  0
 19  1  1  0
  1 20  2  0
  1 22  1  0
  2 21  2  0
 22  2  1  0
  3  5  2  0
 21  3  1  0
  3 23  1  0
 23  4  2  0
  4 24  1  0
  5 25  1  0
  6  7  2  0
 17  6  1  0
  7 14  1  0
  7 26  1  0
  8 26  1  1
  8 27  1  0
 27  9  2  0
  9 28  1  0
 28 10  2  0
 10 29  1  0
 12 11  1  0
 12 13  2  0
 14 12  1  0
 15 14  2  0
 16 15  1  0
 17 16  2  0
 18 17  1  0
 19 18  1  6
 20 21  1  0
 24 25  2  0
 27 30  1  0
 29 30  2  0
M  CHG  1  13   1
M  END
$$$$
