
     RDKit          3D

 30 33  0  0  0  0  0  0  0  0999 V2000
   -6.7780  -15.9102   68.1763 C   0  0  0  0  0  0  0  0  0  0  0  0
   -8.4976  -16.7647   69.2731 C   0  0  0  0  0  0  0  0  0  0  0  0
   -7.2597  -17.9860   71.1238 C   0  0  0  0  0  0  0  0  0  0  0  0
   -8.3307  -19.1540   72.9369 C   0  0  0  0  0  0  0  0  0  0  0  0
   -6.0490  -18.4092   71.6127 C   0  0  0  0  0  0  0  0  0  0  0  0
   -3.6075  -14.2034   65.6424 C   0  0  0  0  0  0  0  0  0  0  0  0
   -2.8114  -13.8007   64.5770 C   0  0  0  0  0  0  0  0  0  0  0  0
   -2.8860  -11.4037   65.1992 C   0  0  0  0  0  0  0  0  0  0  0  0
   -2.8832  -10.7928   67.5975 C   0  0  0  0  0  0  0  0  0  0  0  0
   -1.0638  -11.3383   69.0630 C   0  0  0  0  0  0  0  0  0  0  0  0
   -1.4209  -15.2157   61.4670 N   0  0  0  0  0  0  0  0  0  0  0  0
   -1.6195  -14.3153   62.5331 C   0  0  0  0  0  0  0  0  0  0  0  0
   -1.0805  -13.1678   62.5129 N   0  0  0  0  0  4  0  0  0  0  0  0
   -2.4395  -14.7217   63.6515 C   0  0  0  0  0  0  0  0  0  0  0  0
   -2.8374  -16.0701   63.7421 C   0  0  0  0  0  0  0  0  0  0  0  0
   -3.6258  -16.4588   64.8013 C   0  0  0  0  0  0  0  0  0  0  0  0
   -4.0076  -15.5174   65.7495 C   0  0  0  0  0  0  0  0  0  0  0  0
   -4.8228  -15.9511   66.8329 N   0  0  0  0  0  0  0  0  0  0  0  0
   -5.9857  -15.1698   67.1722 C   0  0  0  0  0  0  0  0  0  0  0  0
   -6.3342  -16.6196   69.2303 N   0  0  0  0  0  0  0  0  0  0  0  0
   -7.3460  -17.1559   69.9238 C   0  0  0  0  0  0  0  0  0  0  0  0
   -8.1245  -16.0139   68.2223 N   0  0  0  0  0  0  0  0  0  0  0  0
   -8.4068  -18.3598   71.7886 C   0  0  0  0  0  0  0  0  0  0  0  0
   -7.1146  -19.5674   73.4109 C   0  0  0  0  0  0  0  0  0  0  0  0
   -5.9497  -19.2037   72.7589 C   0  0  0  0  0  0  0  0  0  0  0  0
   -2.4253  -12.5020   64.4880 O   0  0  0  0  0  0  0  0  0  0  0  0
   -2.2302  -11.3940   66.5405 C   0  0  0  0  0  0  0  0  0  0  0  0
   -2.3001  -10.7688   68.8433 C   0  0  0  0  0  0  0  0  0  0  0  0
   -0.4718  -11.9104   67.9993 N   0  0  0  0  0  0  0  0  0  0  0  0
   -1.0068  -11.9532   66.7752 C   0  0  0  0  0  0  0  0  0  0  0  0
 19  1  1  0
  1 20  2  0
  1 22  1  0
  2 21  2  0
 22  2  1  0
  3  5  2  0
 21  3  1  0
  3 23  1  0
 23  4  2  0
  4 24  1  0
  5 25  1  0
  6  7  2  0
 17  6  1  0
  7 14  1  0
  7 26  1  0
  8 26  1  1
  8 27  1  0
 27  9  2  0
  9 28  1  0
 28 10  2  0
 10 29  1  0
 12 11  1  0
 12 13  2  0
 14 12  1  0
 15 14  2  0
 16 15  1  0
 17 16  2  0
 18 17  1  0
 19 18  1  6
 20 21  1  0
 24 25  2  0
 27 30  1  0
 29 30  2  0
M  CHG  1  13   1
M  END
$$$$
