
     RDKit          3D

 30 33  0  0  0  0  0  0  0  0999 V2000
   -6.2567  -16.1245   67.8659 C   0  0  0  0  0  0  0  0  0  0  0  0
   -7.9903  -14.8123   67.7335 C   0  0  0  0  0  0  0  0  0  0  0  0
   -7.1494  -12.8172   69.0804 C   0  0  0  0  0  0  0  0  0  0  0  0
   -8.5044  -10.9315   69.7201 C   0  0  0  0  0  0  0  0  0  0  0  0
   -6.0578  -12.1545   69.5841 C   0  0  0  0  0  0  0  0  0  0  0  0
   -3.5421  -15.6610   66.0891 C   0  0  0  0  0  0  0  0  0  0  0  0
   -2.6068  -14.8956   65.4467 C   0  0  0  0  0  0  0  0  0  0  0  0
   -2.1057  -13.5224   67.4227 C   0  0  0  0  0  0  0  0  0  0  0  0
   -2.8778  -11.1752   66.9937 C   0  0  0  0  0  0  0  0  0  0  0  0
   -2.0010   -9.3698   68.2954 C   0  0  0  0  0  0  0  0  0  0  0  0
   -0.6737  -15.1026   62.2566 N   0  0  0  0  0  0  0  0  0  0  0  0
   -1.1917  -14.5519   63.4450 C   0  0  0  0  0  0  0  0  0  0  0  0
   -0.7978  -13.4146   63.8510 N   0  0  0  0  0  4  0  0  0  0  0  0
   -2.1823  -15.2952   64.1976 C   0  0  0  0  0  0  0  0  0  0  0  0
   -2.7176  -16.4530   63.6426 C   0  0  0  0  0  0  0  0  0  0  0  0
   -3.6523  -17.1992   64.3090 C   0  0  0  0  0  0  0  0  0  0  0  0
   -4.0977  -16.8312   65.5531 C   0  0  0  0  0  0  0  0  0  0  0  0
   -5.0466  -17.5759   66.2960 N   0  0  0  0  0  0  0  0  0  0  0  0
   -5.4225  -17.3459   67.6410 C   0  0  0  0  0  0  0  0  0  0  0  0
   -6.0013  -14.9937   68.5303 N   0  0  0  0  0  0  0  0  0  0  0  0
   -7.0479  -14.1398   68.4805 C   0  0  0  0  0  0  0  0  0  0  0  0
   -7.5156  -15.9992   67.3667 N   0  0  0  0  0  0  0  0  0  0  0  0
   -8.3750  -12.2030   69.1493 C   0  0  0  0  0  0  0  0  0  0  0  0
   -7.3974  -10.2827   70.2200 C   0  0  0  0  0  0  0  0  0  0  0  0
   -6.1707  -10.8932   70.1530 C   0  0  0  0  0  0  0  0  0  0  0  0
   -2.1227  -13.7668   66.0524 O   0  0  0  0  0  0  0  0  0  0  0  0
   -2.0954  -12.0647   67.6991 C   0  0  0  0  0  0  0  0  0  0  0  0
   -2.8263   -9.8353   67.2952 C   0  0  0  0  0  0  0  0  0  0  0  0
   -1.2329  -10.2494   68.9866 N   0  0  0  0  0  0  0  0  0  0  0  0
   -1.2850  -11.5475   68.6921 C   0  0  0  0  0  0  0  0  0  0  0  0
 19  1  1  0
  1 20  2  0
  1 22  1  0
  2 21  2  0
 22  2  1  0
  3  5  2  0
 21  3  1  0
  3 23  1  0
 23  4  2  0
  4 24  1  0
  5 25  1  0
  6  7  2  0
 17  6  1  0
  7 14  1  0
  7 26  1  0
 26  8  1  0
  8 27  1  0
 27  9  2  0
  9 28  1  0
 28 10  2  0
 10 29  1  0
 12 11  1  0
 12 13  2  0
 14 12  1  0
 15 14  2  0
 16 15  1  0
 17 16  2  0
 18 17  1  0
 18 19  1  0
 20 21  1  0
 24 25  2  0
 27 30  1  0
 29 30  2  0
M  CHG  1  13   1
M  END
$$$$
