
     RDKit          3D

 30 33  0  0  0  0  0  0  0  0999 V2000
   -6.1467  -13.9641   67.8641 C   0  0  0  0  0  0  0  0  0  0  0  0
   -5.3656  -11.9628   68.3880 C   0  0  0  0  0  0  0  0  0  0  0  0
   -4.8913  -12.3220   70.8568 C   0  0  0  0  0  0  0  0  0  0  0  0
   -4.2433  -12.8753   73.1090 C   0  0  0  0  0  0  0  0  0  0  0  0
   -4.6697  -11.0006   71.1549 C   0  0  0  0  0  0  0  0  0  0  0  0
   -4.1808  -15.4976   65.8857 C   0  0  0  0  0  0  0  0  0  0  0  0
   -2.9306  -15.7010   65.3143 C   0  0  0  0  0  0  0  0  0  0  0  0
   -1.9590  -16.6946   67.3654 C   0  0  0  0  0  0  0  0  0  0  0  0
   -0.7018  -14.6845   68.0754 C   0  0  0  0  0  0  0  0  0  0  0  0
   -1.1472  -13.5507   70.1423 C   0  0  0  0  0  0  0  0  0  0  0  0
   -1.3563  -15.6187   61.9826 N   0  0  0  0  0  0  0  0  0  0  0  0
   -1.4652  -15.6339   63.3879 C   0  0  0  0  0  0  0  0  0  0  0  0
   -0.4400  -15.8250   64.1089 N   0  0  0  0  0  4  0  0  0  0  0  0
   -2.7623  -15.4359   63.9935 C   0  0  0  0  0  0  0  0  0  0  0  0
   -3.8176  -14.9621   63.1894 C   0  0  0  0  0  0  0  0  0  0  0  0
   -5.0522  -14.7640   63.7650 C   0  0  0  0  0  0  0  0  0  0  0  0
   -5.2262  -15.0346   65.1168 C   0  0  0  0  0  0  0  0  0  0  0  0
   -6.5149  -14.8198   65.6820 N   0  0  0  0  0  0  0  0  0  0  0  0
   -6.7025  -15.0905   67.0853 C   0  0  0  0  0  0  0  0  0  0  0  0
   -5.8233  -13.9330   69.1701 N   0  0  0  0  0  0  0  0  0  0  0  0
   -5.3448  -12.7356   69.5303 C   0  0  0  0  0  0  0  0  0  0  0  0
   -5.8543  -12.7299   67.3981 N   0  0  0  0  0  0  0  0  0  0  0  0
   -4.6773  -13.2647   71.8382 C   0  0  0  0  0  0  0  0  0  0  0  0
   -4.0270  -11.5527   73.3894 C   0  0  0  0  0  0  0  0  0  0  0  0
   -4.2357  -10.5891   72.4187 C   0  0  0  0  0  0  0  0  0  0  0  0
   -1.9121  -16.1589   66.0867 O   0  0  0  0  0  0  0  0  0  0  0  0
   -1.6939  -15.6040   68.3500 C   0  0  0  0  0  0  0  0  0  0  0  0
   -0.4364  -13.6709   68.9669 C   0  0  0  0  0  0  0  0  0  0  0  0
   -2.1021  -14.4726   70.3601 N   0  0  0  0  0  0  0  0  0  0  0  0
   -2.3882  -15.4707   69.5183 C   0  0  0  0  0  0  0  0  0  0  0  0
 19  1  1  0
  1 20  2  0
  1 22  1  0
  2 21  2  0
 22  2  1  0
  3  5  2  0
 21  3  1  0
  3 23  1  0
 23  4  2  0
  4 24  1  0
  5 25  1  0
  6  7  2  0
 17  6  1  0
  7 14  1  0
  7 26  1  0
  8 26  1  1
  8 27  1  0
 27  9  2  0
  9 28  1  0
 28 10  2  0
 10 29  1  0
 12 11  1  0
 12 13  2  0
 14 12  1  0
 15 14  2  0
 16 15  1  0
 17 16  2  0
 18 17  1  0
 19 18  1  6
 20 21  1  0
 24 25  2  0
 27 30  1  0
 29 30  2  0
M  CHG  1  13   1
M  END
$$$$
