
     RDKit          3D

 30 33  0  0  0  0  0  0  0  0999 V2000
   -5.6270  -16.0468   67.8273 C   0  0  0  0  0  0  0  0  0  0  0  0
   -4.4253  -15.9625   69.6422 C   0  0  0  0  0  0  0  0  0  0  0  0
   -5.1887  -13.7197   70.5846 C   0  0  0  0  0  0  0  0  0  0  0  0
   -4.4051  -12.7863   72.6620 C   0  0  0  0  0  0  0  0  0  0  0  0
   -5.9563  -12.5945   70.4133 C   0  0  0  0  0  0  0  0  0  0  0  0
   -3.8056  -15.2636   65.3513 C   0  0  0  0  0  0  0  0  0  0  0  0
   -2.7534  -14.5896   64.7927 C   0  0  0  0  0  0  0  0  0  0  0  0
   -3.3288  -12.5114   65.9723 C   0  0  0  0  0  0  0  0  0  0  0  0
   -1.3205  -12.5755   67.4731 C   0  0  0  0  0  0  0  0  0  0  0  0
   -1.5152  -11.9094   69.7624 C   0  0  0  0  0  0  0  0  0  0  0  0
   -0.4406  -13.3266   63.6438 N   0  0  0  0  0  0  0  0  0  0  0  0
   -0.8015  -14.6360   63.2710 C   0  0  0  0  0  0  0  0  0  0  0  0
   -0.1330  -15.2603   62.3896 N   0  0  0  0  0  4  0  0  0  0  0  0
   -1.9416  -15.2652   63.9070 C   0  0  0  0  0  0  0  0  0  0  0  0
   -2.2217  -16.5968   63.6175 C   0  0  0  0  0  0  0  0  0  0  0  0
   -3.2816  -17.2456   64.1920 C   0  0  0  0  0  0  0  0  0  0  0  0
   -4.1103  -16.6042   65.0772 C   0  0  0  0  0  0  0  0  0  0  0  0
   -5.2077  -17.2318   65.7165 N   0  0  0  0  0  0  0  0  0  0  0  0
   -6.1651  -16.6002   66.5458 C   0  0  0  0  0  0  0  0  0  0  0  0
   -5.8950  -14.9105   68.4772 N   0  0  0  0  0  0  0  0  0  0  0  0
   -5.1738  -14.8061   69.6156 C   0  0  0  0  0  0  0  0  0  0  0  0
   -4.6974  -16.7035   68.5718 N   0  0  0  0  0  0  0  0  0  0  0  0
   -4.4117  -13.8144   71.7122 C   0  0  0  0  0  0  0  0  0  0  0  0
   -5.1821  -11.6653   72.4723 C   0  0  0  0  0  0  0  0  0  0  0  0
   -5.9600  -11.5669   71.3466 C   0  0  0  0  0  0  0  0  0  0  0  0
   -2.5364  -13.2783   65.1227 O   0  0  0  0  0  0  0  0  0  0  0  0
   -2.6606  -12.3134   67.2821 C   0  0  0  0  0  0  0  0  0  0  0  0
   -0.7564  -12.3724   68.7097 C   0  0  0  0  0  0  0  0  0  0  0  0
   -2.8337  -11.6531   69.5693 N   0  0  0  0  0  0  0  0  0  0  0  0
   -3.3777  -11.8509   68.3694 C   0  0  0  0  0  0  0  0  0  0  0  0
 19  1  1  0
  1 20  2  0
  1 22  1  0
  2 21  2  0
 22  2  1  0
  3  5  2  0
 21  3  1  0
  3 23  1  0
 23  4  2  0
  4 24  1  0
  5 25  1  0
  6  7  2  0
 17  6  1  0
  7 14  1  0
  7 26  1  0
 26  8  1  0
  8 27  1  0
 27  9  2  0
  9 28  1  0
 28 10  2  0
 10 29  1  0
 12 11  1  0
 12 13  2  0
 14 12  1  0
 15 14  2  0
 16 15  1  0
 17 16  2  0
 18 17  1  0
 18 19  1  0
 20 21  1  0
 24 25  2  0
 27 30  1  0
 29 30  2  0
M  CHG  1  13   1
M  END
$$$$
