
     RDKit          3D

 30 33  0  0  0  0  0  0  0  0999 V2000
   -5.3079  -16.9319   68.7180 C   0  0  0  0  0  0  0  0  0  0  0  0
   -3.5644  -17.6392   69.8800 C   0  0  0  0  0  0  0  0  0  0  0  0
   -4.5264  -17.4929   72.2256 C   0  0  0  0  0  0  0  0  0  0  0  0
   -5.6049  -17.3670   74.3749 C   0  0  0  0  0  0  0  0  0  0  0  0
   -3.3737  -17.8748   72.8654 C   0  0  0  0  0  0  0  0  0  0  0  0
   -3.2747  -15.4096   65.7325 C   0  0  0  0  0  0  0  0  0  0  0  0
   -2.5389  -14.2555   65.4920 C   0  0  0  0  0  0  0  0  0  0  0  0
   -0.4718  -15.5021   64.9340 C   0  0  0  0  0  0  0  0  0  0  0  0
   -1.2911  -17.5036   63.7308 C   0  0  0  0  0  0  0  0  0  0  0  0
   -1.6610  -17.5193   61.3604 C   0  0  0  0  0  0  0  0  0  0  0  0
   -3.0370  -10.5952   65.5105 N   0  0  0  0  0  0  0  0  0  0  0  0
   -2.3816  -11.8402   65.4250 C   0  0  0  0  0  0  0  0  0  0  0  0
   -1.1481  -11.8977   65.1376 N   0  0  0  0  0  4  0  0  0  0  0  0
   -3.1374  -13.0490   65.6622 C   0  0  0  0  0  0  0  0  0  0  0  0
   -4.4798  -12.9358   66.0743 C   0  0  0  0  0  0  0  0  0  0  0  0
   -5.2000  -14.0850   66.3097 C   0  0  0  0  0  0  0  0  0  0  0  0
   -4.5890  -15.3209   66.1362 C   0  0  0  0  0  0  0  0  0  0  0  0
   -5.3607  -16.4904   66.3874 N   0  0  0  0  0  0  0  0  0  0  0  0
   -6.1665  -16.5373   67.5817 C   0  0  0  0  0  0  0  0  0  0  0  0
   -5.6095  -16.9332   70.0295 N   0  0  0  0  0  0  0  0  0  0  0  0
   -4.5782  -17.3560   70.7713 C   0  0  0  0  0  0  0  0  0  0  0  0
   -4.0329  -17.3740   68.6481 N   0  0  0  0  0  0  0  0  0  0  0  0
   -5.6481  -17.2376   72.9834 C   0  0  0  0  0  0  0  0  0  0  0  0
   -4.4466  -17.7490   74.9970 C   0  0  0  0  0  0  0  0  0  0  0  0
   -3.3082  -18.0105   74.2555 C   0  0  0  0  0  0  0  0  0  0  0  0
   -1.2452  -14.3617   65.0935 O   0  0  0  0  0  0  0  0  0  0  0  0
   -0.8839  -16.1861   63.6725 C   0  0  0  0  0  0  0  0  0  0  0  0
   -1.6743  -18.1574   62.5826 C   0  0  0  0  0  0  0  0  0  0  0  0
   -1.2559  -16.2367   61.3603 N   0  0  0  0  0  0  0  0  0  0  0  0
   -0.8766  -15.5690   62.4544 C   0  0  0  0  0  0  0  0  0  0  0  0
 19  1  1  0
  1 20  2  0
  1 22  1  0
  2 21  2  0
 22  2  1  0
  3  5  2  0
 21  3  1  0
  3 23  1  0
 23  4  2  0
  4 24  1  0
  5 25  1  0
  6  7  2  0
 17  6  1  0
  7 14  1  0
  7 26  1  0
  8 26  1  1
  8 27  1  0
 27  9  2  0
  9 28  1  0
 28 10  2  0
 10 29  1  0
 12 11  1  0
 12 13  2  0
 14 12  1  0
 15 14  2  0
 16 15  1  0
 17 16  2  0
 18 17  1  0
 19 18  1  6
 20 21  1  0
 24 25  2  0
 27 30  1  0
 29 30  2  0
M  CHG  1  13   1
M  END
$$$$
