
     RDKit          3D

 30 33  0  0  0  0  0  0  0  0999 V2000
   -5.3529  -16.0194   68.5843 C   0  0  0  0  0  0  0  0  0  0  0  0
   -4.7520  -15.6533   70.6807 C   0  0  0  0  0  0  0  0  0  0  0  0
   -2.8419  -17.3156   70.8742 C   0  0  0  0  0  0  0  0  0  0  0  0
   -1.6830  -17.8383   72.9192 C   0  0  0  0  0  0  0  0  0  0  0  0
   -1.9328  -18.0932   70.2012 C   0  0  0  0  0  0  0  0  0  0  0  0
   -3.9620  -14.9121   65.7169 C   0  0  0  0  0  0  0  0  0  0  0  0
   -2.9585  -14.3812   64.9157 C   0  0  0  0  0  0  0  0  0  0  0  0
   -3.2019  -12.0738   65.7846 C   0  0  0  0  0  0  0  0  0  0  0  0
   -1.3690  -11.9714   67.4445 C   0  0  0  0  0  0  0  0  0  0  0  0
   -1.7715  -11.9850   69.8096 C   0  0  0  0  0  0  0  0  0  0  0  0
   -0.9722  -15.3429   61.9604 N   0  0  0  0  0  0  0  0  0  0  0  0
   -1.3729  -14.6182   63.1011 C   0  0  0  0  0  0  0  0  0  0  0  0
   -0.8252  -13.5099   63.3824 N   0  0  0  0  0  4  0  0  0  0  0  0
   -2.4109  -15.1602   63.9481 C   0  0  0  0  0  0  0  0  0  0  0  0
   -2.8311  -16.4879   63.7354 C   0  0  0  0  0  0  0  0  0  0  0  0
   -3.8258  -17.0044   64.5345 C   0  0  0  0  0  0  0  0  0  0  0  0
   -4.3875  -16.2084   65.5253 C   0  0  0  0  0  0  0  0  0  0  0  0
   -5.4137  -16.7720   66.3351 N   0  0  0  0  0  0  0  0  0  0  0  0
   -6.0723  -15.9241   67.2969 C   0  0  0  0  0  0  0  0  0  0  0  0
   -4.3216  -16.8221   68.9054 N   0  0  0  0  0  0  0  0  0  0  0  0
   -3.9253  -16.6323   70.1701 C   0  0  0  0  0  0  0  0  0  0  0  0
   -5.6036  -15.3021   69.7017 N   0  0  0  0  0  0  0  0  0  0  0  0
   -2.7170  -17.1870   72.2399 C   0  0  0  0  0  0  0  0  0  0  0  0
   -0.7847  -18.6103   72.2323 C   0  0  0  0  0  0  0  0  0  0  0  0
   -0.8912  -18.7534   70.8603 C   0  0  0  0  0  0  0  0  0  0  0  0
   -2.5506  -13.1022   65.1194 O   0  0  0  0  0  0  0  0  0  0  0  0
   -2.7254  -12.0429   67.1992 C   0  0  0  0  0  0  0  0  0  0  0  0
   -0.9037  -11.9431   68.7388 C   0  0  0  0  0  0  0  0  0  0  0  0
   -3.0819  -12.0542   69.5143 N   0  0  0  0  0  0  0  0  0  0  0  0
   -3.5709  -12.0835   68.2707 C   0  0  0  0  0  0  0  0  0  0  0  0
 19  1  1  0
  1 20  2  0
  1 22  1  0
  2 21  2  0
 22  2  1  0
  3  5  2  0
 21  3  1  0
  3 23  1  0
 23  4  2  0
  4 24  1  0
  5 25  1  0
  6  7  2  0
 17  6  1  0
  7 14  1  0
  7 26  1  0
  8 26  1  1
  8 27  1  0
 27  9  2  0
  9 28  1  0
 28 10  2  0
 10 29  1  0
 12 11  1  0
 12 13  2  0
 14 12  1  0
 15 14  2  0
 16 15  1  0
 17 16  2  0
 18 17  1  0
 19 18  1  6
 20 21  1  0
 24 25  2  0
 27 30  1  0
 29 30  2  0
M  CHG  1  13   1
M  END
$$$$
