
     RDKit          3D

 30 33  0  0  0  0  0  0  0  0999 V2000
   -6.2655  -16.1599   67.6464 C   0  0  0  0  0  0  0  0  0  0  0  0
   -8.2347  -15.3324   67.2195 C   0  0  0  0  0  0  0  0  0  0  0  0
   -8.2114  -13.2977   68.7562 C   0  0  0  0  0  0  0  0  0  0  0  0
  -10.1353  -11.9615   69.3167 C   0  0  0  0  0  0  0  0  0  0  0  0
   -7.4231  -12.3397   69.3437 C   0  0  0  0  0  0  0  0  0  0  0  0
   -3.4099  -15.5303   65.7096 C   0  0  0  0  0  0  0  0  0  0  0  0
   -2.6067  -14.7707   64.9026 C   0  0  0  0  0  0  0  0  0  0  0  0
   -1.9231  -13.2362   66.6968 C   0  0  0  0  0  0  0  0  0  0  0  0
   -3.3206  -11.2056   66.2350 C   0  0  0  0  0  0  0  0  0  0  0  0
   -4.5974  -10.2058   67.9937 C   0  0  0  0  0  0  0  0  0  0  0  0
   -1.0122  -15.1490   61.5492 N   0  0  0  0  0  0  0  0  0  0  0  0
   -1.4673  -14.5124   62.7203 C   0  0  0  0  0  0  0  0  0  0  0  0
   -1.1431  -13.3088   62.9647 N   0  0  0  0  0  4  0  0  0  0  0  0
   -2.3132  -15.2442   63.6418 C   0  0  0  0  0  0  0  0  0  0  0  0
   -2.8412  -16.4674   63.2416 C   0  0  0  0  0  0  0  0  0  0  0  0
   -3.6420  -17.2060   64.0710 C   0  0  0  0  0  0  0  0  0  0  0  0
   -3.9550  -16.7653   65.3317 C   0  0  0  0  0  0  0  0  0  0  0  0
   -4.7607  -17.4973   66.2384 N   0  0  0  0  0  0  0  0  0  0  0  0
   -5.1089  -17.1042   67.5527 C   0  0  0  0  0  0  0  0  0  0  0  0
   -6.4442  -15.0561   68.3778 N   0  0  0  0  0  0  0  0  0  0  0  0
   -7.6549  -14.4993   68.1513 C   0  0  0  0  0  0  0  0  0  0  0  0
   -7.4025  -16.3251   66.9186 N   0  0  0  0  0  0  0  0  0  0  0  0
   -9.5707  -13.1068   68.7434 C   0  0  0  0  0  0  0  0  0  0  0  0
   -9.3278  -11.0116   69.9014 C   0  0  0  0  0  0  0  0  0  0  0  0
   -7.9688  -11.1988   69.9162 C   0  0  0  0  0  0  0  0  0  0  0  0
   -2.1215  -13.5750   65.3613 O   0  0  0  0  0  0  0  0  0  0  0  0
   -2.8579  -12.1621   67.1137 C   0  0  0  0  0  0  0  0  0  0  0  0
   -4.1861  -10.2348   66.6790 C   0  0  0  0  0  0  0  0  0  0  0  0
   -4.1389  -11.1494   68.8545 N   0  0  0  0  0  0  0  0  0  0  0  0
   -3.3001  -12.0892   68.4211 C   0  0  0  0  0  0  0  0  0  0  0  0
 19  1  1  0
  1 20  2  0
  1 22  1  0
  2 21  2  0
 22  2  1  0
  3  5  2  0
 21  3  1  0
  3 23  1  0
 23  4  2  0
  4 24  1  0
  5 25  1  0
  6  7  2  0
 17  6  1  0
  7 14  1  0
  7 26  1  0
 26  8  1  0
  8 27  1  0
 27  9  2  0
  9 28  1  0
 28 10  2  0
 10 29  1  0
 12 11  1  0
 12 13  2  0
 14 12  1  0
 15 14  2  0
 16 15  1  0
 17 16  2  0
 18 17  1  0
 18 19  1  0
 20 21  1  0
 24 25  2  0
 27 30  1  0
 29 30  2  0
M  CHG  1  13   1
M  END
$$$$
