
     RDKit          3D

 30 33  0  0  0  0  0  0  0  0999 V2000
   -5.4121  -16.7536   67.8897 C   0  0  0  0  0  0  0  0  0  0  0  0
   -4.1904  -17.8319   69.3351 C   0  0  0  0  0  0  0  0  0  0  0  0
   -4.1281  -16.1291   71.2320 C   0  0  0  0  0  0  0  0  0  0  0  0
   -4.0185  -14.3116   72.8087 C   0  0  0  0  0  0  0  0  0  0  0  0
   -3.5256  -16.9290   72.1710 C   0  0  0  0  0  0  0  0  0  0  0  0
   -3.9151  -14.9311   65.4625 C   0  0  0  0  0  0  0  0  0  0  0  0
   -2.8954  -14.1640   64.9673 C   0  0  0  0  0  0  0  0  0  0  0  0
   -3.2554  -12.3542   66.5910 C   0  0  0  0  0  0  0  0  0  0  0  0
   -1.1805  -12.2845   67.9981 C   0  0  0  0  0  0  0  0  0  0  0  0
   -0.8273  -10.4740   69.5213 C   0  0  0  0  0  0  0  0  0  0  0  0
   -0.8339  -12.5706   63.7490 N   0  0  0  0  0  0  0  0  0  0  0  0
   -1.2083  -13.8086   63.1912 C   0  0  0  0  0  0  0  0  0  0  0  0
   -0.5949  -14.2686   62.1784 N   0  0  0  0  0  4  0  0  0  0  0  0
   -2.2983  -14.5543   63.7879 C   0  0  0  0  0  0  0  0  0  0  0  0
   -2.7523  -15.7048   63.1513 C   0  0  0  0  0  0  0  0  0  0  0  0
   -3.7748  -16.4529   63.6705 C   0  0  0  0  0  0  0  0  0  0  0  0
   -4.3920  -16.0940   64.8418 C   0  0  0  0  0  0  0  0  0  0  0  0
   -5.4394  -16.8413   65.4346 N   0  0  0  0  0  0  0  0  0  0  0  0
   -6.1475  -16.5001   66.6117 C   0  0  0  0  0  0  0  0  0  0  0  0
   -5.2629  -16.0015   68.9839 N   0  0  0  0  0  0  0  0  0  0  0  0
   -4.5099  -16.6248   69.9175 C   0  0  0  0  0  0  0  0  0  0  0  0
   -4.7307  -17.9074   68.1223 N   0  0  0  0  0  0  0  0  0  0  0  0
   -4.3745  -14.8174   71.5530 C   0  0  0  0  0  0  0  0  0  0  0  0
   -3.4150  -15.1299   73.7374 C   0  0  0  0  0  0  0  0  0  0  0  0
   -3.1670  -16.4414   73.4203 C   0  0  0  0  0  0  0  0  0  0  0  0
   -2.4993  -13.0427   65.6465 O   0  0  0  0  0  0  0  0  0  0  0  0
   -2.3806  -11.7263   67.6119 C   0  0  0  0  0  0  0  0  0  0  0  0
   -0.4120  -11.6564   68.9488 C   0  0  0  0  0  0  0  0  0  0  0  0
   -2.0093   -9.9288   69.1376 N   0  0  0  0  0  0  0  0  0  0  0  0
   -2.7520  -10.5399   68.2159 C   0  0  0  0  0  0  0  0  0  0  0  0
 19  1  1  0
  1 20  2  0
  1 22  1  0
  2 21  2  0
 22  2  1  0
  3  5  2  0
 21  3  1  0
  3 23  1  0
 23  4  2  0
  4 24  1  0
  5 25  1  0
  6  7  2  0
 17  6  1  0
  7 14  1  0
  7 26  1  0
 26  8  1  0
  8 27  1  0
 27  9  2  0
  9 28  1  0
 28 10  2  0
 10 29  1  0
 12 11  1  0
 12 13  2  0
 14 12  1  0
 15 14  2  0
 16 15  1  0
 17 16  2  0
 18 17  1  0
 18 19  1  0
 20 21  1  0
 24 25  2  0
 27 30  1  0
 29 30  2  0
M  CHG  1  13   1
M  END
$$$$
