
     RDKit          3D

 30 33  0  0  0  0  0  0  0  0999 V2000
   -6.4914  -16.1784   67.6822 C   0  0  0  0  0  0  0  0  0  0  0  0
   -8.3383  -15.0186   67.3161 C   0  0  0  0  0  0  0  0  0  0  0  0
   -8.3581  -13.5758   69.4058 C   0  0  0  0  0  0  0  0  0  0  0  0
  -10.1803  -12.1508   70.0747 C   0  0  0  0  0  0  0  0  0  0  0  0
   -7.6103  -13.0385   70.4237 C   0  0  0  0  0  0  0  0  0  0  0  0
   -3.5982  -15.7087   65.8558 C   0  0  0  0  0  0  0  0  0  0  0  0
   -2.6736  -15.0275   65.0736 C   0  0  0  0  0  0  0  0  0  0  0  0
   -1.8428  -13.6385   66.9494 C   0  0  0  0  0  0  0  0  0  0  0  0
   -3.4505  -11.9066   66.2138 C   0  0  0  0  0  0  0  0  0  0  0  0
   -4.7529  -10.6177   67.7625 C   0  0  0  0  0  0  0  0  0  0  0  0
   -1.1303  -13.4138   63.3384 N   0  0  0  0  0  0  0  0  0  0  0  0
   -1.5466  -14.7047   62.9549 C   0  0  0  0  0  0  0  0  0  0  0  0
   -1.0970  -15.2356   61.8950 N   0  0  0  0  0  4  0  0  0  0  0  0
   -2.4980  -15.4102   63.7829 C   0  0  0  0  0  0  0  0  0  0  0  0
   -3.2254  -16.4760   63.2174 C   0  0  0  0  0  0  0  0  0  0  0  0
   -4.1388  -17.1444   64.0008 C   0  0  0  0  0  0  0  0  0  0  0  0
   -4.3199  -16.7539   65.3220 C   0  0  0  0  0  0  0  0  0  0  0  0
   -5.2716  -17.4654   66.1059 N   0  0  0  0  0  0  0  0  0  0  0  0
   -5.3857  -17.1430   67.5061 C   0  0  0  0  0  0  0  0  0  0  0  0
   -6.6980  -15.3242   68.7014 N   0  0  0  0  0  0  0  0  0  0  0  0
   -7.8094  -14.6003   68.5193 C   0  0  0  0  0  0  0  0  0  0  0  0
   -7.5222  -15.9715   66.8333 N   0  0  0  0  0  0  0  0  0  0  0  0
   -9.6496  -13.1303   69.2298 C   0  0  0  0  0  0  0  0  0  0  0  0
   -9.4204  -11.6254   71.0851 C   0  0  0  0  0  0  0  0  0  0  0  0
   -8.1208  -12.0583   71.2801 C   0  0  0  0  0  0  0  0  0  0  0  0
   -1.9701  -14.0008   65.6165 O   0  0  0  0  0  0  0  0  0  0  0  0
   -2.8578  -12.5878   67.2578 C   0  0  0  0  0  0  0  0  0  0  0  0
   -4.3876  -10.9327   66.4708 C   0  0  0  0  0  0  0  0  0  0  0  0
   -4.1450  -11.3116   68.7415 N   0  0  0  0  0  0  0  0  0  0  0  0
   -3.2309  -12.2637   68.5307 C   0  0  0  0  0  0  0  0  0  0  0  0
 19  1  1  0
  1 20  2  0
  1 22  1  0
  2 21  2  0
 22  2  1  0
  3  5  2  0
 21  3  1  0
  3 23  1  0
 23  4  2  0
  4 24  1  0
  5 25  1  0
  6  7  2  0
 17  6  1  0
  7 14  1  0
  7 26  1  0
  8 26  1  1
  8 27  1  0
 27  9  2  0
  9 28  1  0
 28 10  2  0
 10 29  1  0
 12 11  1  0
 12 13  2  0
 14 12  1  0
 15 14  2  0
 16 15  1  0
 17 16  2  0
 18 17  1  0
 19 18  1  6
 20 21  1  0
 24 25  2  0
 27 30  1  0
 29 30  2  0
M  CHG  1  13   1
M  END
$$$$
