
     RDKit          3D

 30 33  0  0  0  0  0  0  0  0999 V2000
   -7.0542  -16.6964   67.3242 C   0  0  0  0  0  0  0  0  0  0  0  0
   -8.9157  -15.9749   66.3732 C   0  0  0  0  0  0  0  0  0  0  0  0
  -10.0966  -15.0258   68.4113 C   0  0  0  0  0  0  0  0  0  0  0  0
  -11.0616  -14.1293   70.4271 C   0  0  0  0  0  0  0  0  0  0  0  0
  -11.2361  -14.6544   67.7423 C   0  0  0  0  0  0  0  0  0  0  0  0
   -3.8240  -15.7277   66.1376 C   0  0  0  0  0  0  0  0  0  0  0  0
   -2.8915  -14.9359   65.4786 C   0  0  0  0  0  0  0  0  0  0  0  0
   -2.9036  -13.1845   67.2310 C   0  0  0  0  0  0  0  0  0  0  0  0
   -1.2244  -11.3692   67.3297 C   0  0  0  0  0  0  0  0  0  0  0  0
    0.4221  -11.2313   69.0692 C   0  0  0  0  0  0  0  0  0  0  0  0
   -1.2229  -13.2071   64.0209 N   0  0  0  0  0  0  0  0  0  0  0  0
   -1.4687  -14.5179   63.5645 C   0  0  0  0  0  0  0  0  0  0  0  0
   -0.8577  -14.9691   62.5493 N   0  0  0  0  0  4  0  0  0  0  0  0
   -2.4316  -15.3362   64.2657 C   0  0  0  0  0  0  0  0  0  0  0  0
   -2.8725  -16.5291   63.6595 C   0  0  0  0  0  0  0  0  0  0  0  0
   -3.7963  -17.3064   64.3206 C   0  0  0  0  0  0  0  0  0  0  0  0
   -4.2683  -16.8980   65.5621 C   0  0  0  0  0  0  0  0  0  0  0  0
   -5.2228  -17.7241   66.2202 N   0  0  0  0  0  0  0  0  0  0  0  0
   -5.7205  -17.3064   67.5069 C   0  0  0  0  0  0  0  0  0  0  0  0
   -7.8504  -16.1389   68.2550 N   0  0  0  0  0  0  0  0  0  0  0  0
   -8.9917  -15.6876   67.7201 C   0  0  0  0  0  0  0  0  0  0  0  0
   -7.7357  -16.5836   66.1628 N   0  0  0  0  0  0  0  0  0  0  0  0
  -10.0081  -14.7623   69.7604 C   0  0  0  0  0  0  0  0  0  0  0  0
  -12.1912  -13.7655   69.7444 C   0  0  0  0  0  0  0  0  0  0  0  0
  -12.3014  -14.0205   68.3889 C   0  0  0  0  0  0  0  0  0  0  0  0
   -2.4638  -13.7864   66.0612 O   0  0  0  0  0  0  0  0  0  0  0  0
   -1.7419  -12.5187   67.8916 C   0  0  0  0  0  0  0  0  0  0  0  0
   -0.1532  -10.7372   67.9177 C   0  0  0  0  0  0  0  0  0  0  0  0
   -0.1210  -12.3534   69.5745 N   0  0  0  0  0  0  0  0  0  0  0  0
   -1.1605  -12.9947   69.0318 C   0  0  0  0  0  0  0  0  0  0  0  0
 19  1  1  0
  1 20  2  0
  1 22  1  0
  2 21  2  0
 22  2  1  0
  3  5  2  0
 21  3  1  0
  3 23  1  0
 23  4  2  0
  4 24  1  0
  5 25  1  0
  6  7  2  0
 17  6  1  0
  7 14  1  0
  7 26  1  0
  8 26  1  1
  8 27  1  0
 27  9  2  0
  9 28  1  0
 28 10  2  0
 10 29  1  0
 12 11  1  0
 12 13  2  0
 14 12  1  0
 15 14  2  0
 16 15  1  0
 17 16  2  0
 18 17  1  0
 19 18  1  6
 20 21  1  0
 24 25  2  0
 27 30  1  0
 29 30  2  0
M  CHG  1  13   1
M  END
$$$$
