
     RDKit          3D

 30 33  0  0  0  0  0  0  0  0999 V2000
   -6.0304  -15.4635   67.9420 C   0  0  0  0  0  0  0  0  0  0  0  0
   -7.4446  -13.8504   67.5644 C   0  0  0  0  0  0  0  0  0  0  0  0
   -6.9846  -12.3655   69.5855 C   0  0  0  0  0  0  0  0  0  0  0  0
   -6.1707  -10.9187   71.3307 C   0  0  0  0  0  0  0  0  0  0  0  0
   -8.1040  -11.5749   69.5053 C   0  0  0  0  0  0  0  0  0  0  0  0
   -3.5016  -15.1937   65.9347 C   0  0  0  0  0  0  0  0  0  0  0  0
   -2.5851  -14.4989   65.1926 C   0  0  0  0  0  0  0  0  0  0  0  0
   -2.6357  -12.5131   66.6403 C   0  0  0  0  0  0  0  0  0  0  0  0
   -1.4077  -10.6896   67.8472 C   0  0  0  0  0  0  0  0  0  0  0  0
    0.2675  -11.2411   69.4635 C   0  0  0  0  0  0  0  0  0  0  0  0
   -0.7745  -15.0054   61.9688 N   0  0  0  0  0  0  0  0  0  0  0  0
   -1.2703  -14.3317   63.1020 C   0  0  0  0  0  0  0  0  0  0  0  0
   -0.8787  -13.1538   63.3715 N   0  0  0  0  0  4  0  0  0  0  0  0
   -2.2356  -14.9954   63.9552 C   0  0  0  0  0  0  0  0  0  0  0  0
   -2.8241  -16.1754   63.5119 C   0  0  0  0  0  0  0  0  0  0  0  0
   -3.7382  -16.8494   64.2766 C   0  0  0  0  0  0  0  0  0  0  0  0
   -4.1096  -16.3842   65.5124 C   0  0  0  0  0  0  0  0  0  0  0  0
   -5.0339  -17.0511   66.3538 N   0  0  0  0  0  0  0  0  0  0  0  0
   -5.2989  -16.7479   67.7106 C   0  0  0  0  0  0  0  0  0  0  0  0
   -5.9356  -14.5603   68.9220 N   0  0  0  0  0  0  0  0  0  0  0  0
   -6.7946  -13.5332   68.7372 C   0  0  0  0  0  0  0  0  0  0  0  0
   -6.9864  -15.0053   67.0901 N   0  0  0  0  0  0  0  0  0  0  0  0
   -6.0164  -12.0354   70.5009 C   0  0  0  0  0  0  0  0  0  0  0  0
   -7.3009  -10.1378   71.2353 C   0  0  0  0  0  0  0  0  0  0  0  0
   -8.2708  -10.4644   70.3217 C   0  0  0  0  0  0  0  0  0  0  0  0
   -2.0457  -13.3429   65.6910 O   0  0  0  0  0  0  0  0  0  0  0  0
   -1.6297  -12.0310   67.6185 C   0  0  0  0  0  0  0  0  0  0  0  0
   -0.4623  -10.3029   68.7667 C   0  0  0  0  0  0  0  0  0  0  0  0
    0.0452  -12.5601   69.2346 N   0  0  0  0  0  0  0  0  0  0  0  0
   -0.8719  -12.9318   68.3428 C   0  0  0  0  0  0  0  0  0  0  0  0
 19  1  1  0
  1 20  2  0
  1 22  1  0
  2 21  2  0
 22  2  1  0
  3  5  2  0
 21  3  1  0
  3 23  1  0
 23  4  2  0
  4 24  1  0
  5 25  1  0
  6  7  2  0
 17  6  1  0
  7 14  1  0
  7 26  1  0
 26  8  1  0
  8 27  1  0
 27  9  2  0
  9 28  1  0
 28 10  2  0
 10 29  1  0
 12 11  1  0
 12 13  2  0
 14 12  1  0
 15 14  2  0
 16 15  1  0
 17 16  2  0
 18 17  1  0
 18 19  1  0
 20 21  1  0
 24 25  2  0
 27 30  1  0
 29 30  2  0
M  CHG  1  13   1
M  END
$$$$
