
     RDKit          3D

 30 33  0  0  0  0  0  0  0  0999 V2000
   -6.8477  -13.9775   67.6608 C   0  0  0  0  0  0  0  0  0  0  0  0
   -7.8727  -15.8374   67.1762 C   0  0  0  0  0  0  0  0  0  0  0  0
  -10.2984  -15.0963   67.4368 C   0  0  0  0  0  0  0  0  0  0  0  0
  -12.2084  -16.4361   66.8382 C   0  0  0  0  0  0  0  0  0  0  0  0
  -11.1622  -14.1733   67.9720 C   0  0  0  0  0  0  0  0  0  0  0  0
   -3.2094  -15.2158   66.3848 C   0  0  0  0  0  0  0  0  0  0  0  0
   -2.5150  -15.5709   65.2600 C   0  0  0  0  0  0  0  0  0  0  0  0
   -1.3869  -17.6043   66.0565 C   0  0  0  0  0  0  0  0  0  0  0  0
   -3.5687  -18.7434   66.5381 C   0  0  0  0  0  0  0  0  0  0  0  0
   -3.9823  -19.6709   68.7041 C   0  0  0  0  0  0  0  0  0  0  0  0
   -0.9434  -13.8275   62.3821 N   0  0  0  0  0  0  0  0  0  0  0  0
   -1.5496  -14.8862   63.0860 C   0  0  0  0  0  0  0  0  0  0  0  0
   -1.4622  -16.0778   62.6544 N   0  0  0  0  0  4  0  0  0  0  0  0
   -2.2709  -14.6022   64.3104 C   0  0  0  0  0  0  0  0  0  0  0  0
   -2.7366  -13.3100   64.5309 C   0  0  0  0  0  0  0  0  0  0  0  0
   -3.4290  -12.9837   65.6662 C   0  0  0  0  0  0  0  0  0  0  0  0
   -3.6895  -13.9222   66.6321 C   0  0  0  0  0  0  0  0  0  0  0  0
   -4.4183  -13.6454   67.8150 N   0  0  0  0  0  0  0  0  0  0  0  0
   -5.6986  -13.0465   67.8874 C   0  0  0  0  0  0  0  0  0  0  0  0
   -8.1672  -13.7846   67.7446 N   0  0  0  0  0  0  0  0  0  0  0  0
   -8.8545  -14.9112   67.4527 C   0  0  0  0  0  0  0  0  0  0  0  0
   -6.6729  -15.2774   67.3012 N   0  0  0  0  0  0  0  0  0  0  0  0
  -10.8243  -16.2299   66.8688 C   0  0  0  0  0  0  0  0  0  0  0  0
  -13.0587  -15.4984   67.3803 C   0  0  0  0  0  0  0  0  0  0  0  0
  -12.5371  -14.3640   67.9489 C   0  0  0  0  0  0  0  0  0  0  0  0
   -2.0855  -16.8624   65.1081 O   0  0  0  0  0  0  0  0  0  0  0  0
   -2.3211  -18.3285   66.9533 C   0  0  0  0  0  0  0  0  0  0  0  0
   -4.3907  -19.4110   67.4142 C   0  0  0  0  0  0  0  0  0  0  0  0
   -2.7535  -19.2604   69.1077 N   0  0  0  0  0  0  0  0  0  0  0  0
   -1.9590  -18.6135   68.2563 C   0  0  0  0  0  0  0  0  0  0  0  0
 19  1  1  0
  1 20  2  0
  1 22  1  0
  2 21  2  0
 22  2  1  0
  3  5  2  0
 21  3  1  0
  3 23  1  0
 23  4  2  0
  4 24  1  0
  5 25  1  0
  6  7  2  0
 17  6  1  0
  7 14  1  0
  7 26  1  0
 26  8  1  0
  8 27  1  0
 27  9  2  0
  9 28  1  0
 28 10  2  0
 10 29  1  0
 12 11  1  0
 12 13  2  0
 14 12  1  0
 15 14  2  0
 16 15  1  0
 17 16  2  0
 18 17  1  0
 18 19  1  0
 20 21  1  0
 24 25  2  0
 27 30  1  0
 29 30  2  0
M  CHG  1  13   1
M  END
$$$$
