
     RDKit          3D

 30 33  0  0  0  0  0  0  0  0999 V2000
   -3.0694  -13.2741   69.0597 C   0  0  0  0  0  0  0  0  0  0  0  0
   -1.3349  -14.2529   70.0208 C   0  0  0  0  0  0  0  0  0  0  0  0
   -2.5180  -16.1801   71.1764 C   0  0  0  0  0  0  0  0  0  0  0  0
   -1.4172  -17.8204   72.5534 C   0  0  0  0  0  0  0  0  0  0  0  0
   -3.7007  -16.8415   71.3948 C   0  0  0  0  0  0  0  0  0  0  0  0
   -2.8798  -13.7739   66.0595 C   0  0  0  0  0  0  0  0  0  0  0  0
   -2.4441  -14.4889   64.9506 C   0  0  0  0  0  0  0  0  0  0  0  0
   -3.1215  -16.6959   65.8498 C   0  0  0  0  0  0  0  0  0  0  0  0
   -5.3748  -16.3415   64.8894 C   0  0  0  0  0  0  0  0  0  0  0  0
   -7.3753  -16.5105   66.2029 C   0  0  0  0  0  0  0  0  0  0  0  0
   -1.6251  -15.9313   62.6954 N   0  0  0  0  0  0  0  0  0  0  0  0
   -1.2655  -14.5758   62.8372 C   0  0  0  0  0  0  0  0  0  0  0  0
   -0.5369  -14.0107   61.9669 N   0  0  0  0  0  4  0  0  0  0  0  0
   -1.7332  -13.8426   63.9915 C   0  0  0  0  0  0  0  0  0  0  0  0
   -1.4265  -12.4712   64.0898 C   0  0  0  0  0  0  0  0  0  0  0  0
   -1.8628  -11.7718   65.1923 C   0  0  0  0  0  0  0  0  0  0  0  0
   -2.5904  -12.4318   66.1751 C   0  0  0  0  0  0  0  0  0  0  0  0
   -3.0275  -11.6805   67.3025 N   0  0  0  0  0  0  0  0  0  0  0  0
   -3.8810  -12.3261   68.2681 C   0  0  0  0  0  0  0  0  0  0  0  0
   -3.4838  -14.3543   69.7472 N   0  0  0  0  0  0  0  0  0  0  0  0
   -2.4621  -14.9782   70.3464 C   0  0  0  0  0  0  0  0  0  0  0  0
   -1.7314  -13.2302   69.2435 N   0  0  0  0  0  0  0  0  0  0  0  0
   -1.3701  -16.6712   71.7582 C   0  0  0  0  0  0  0  0  0  0  0  0
   -2.6056  -18.4679   72.7609 C   0  0  0  0  0  0  0  0  0  0  0  0
   -3.7707  -17.9920   72.1863 C   0  0  0  0  0  0  0  0  0  0  0  0
   -2.7394  -15.8106   64.8525 O   0  0  0  0  0  0  0  0  0  0  0  0
   -4.6061  -16.6377   65.9970 C   0  0  0  0  0  0  0  0  0  0  0  0
   -6.7448  -16.2801   64.9985 C   0  0  0  0  0  0  0  0  0  0  0  0
   -6.5795  -16.7947   67.2493 N   0  0  0  0  0  0  0  0  0  0  0  0
   -5.2463  -16.8631   67.1819 C   0  0  0  0  0  0  0  0  0  0  0  0
 19  1  1  0
  1 20  2  0
  1 22  1  0
  2 21  2  0
 22  2  1  0
  3  5  2  0
 21  3  1  0
  3 23  1  0
 23  4  2  0
  4 24  1  0
  5 25  1  0
  6  7  2  0
 17  6  1  0
  7 14  1  0
  7 26  1  0
  8 26  1  1
  8 27  1  0
 27  9  2  0
  9 28  1  0
 28 10  2  0
 10 29  1  0
 12 11  1  0
 12 13  2  0
 14 12  1  0
 15 14  2  0
 16 15  1  0
 17 16  2  0
 18 17  1  0
 19 18  1  6
 20 21  1  0
 24 25  2  0
 27 30  1  0
 29 30  2  0
M  CHG  1  13   1
M  END
$$$$
