
     RDKit          3D

 30 33  0  0  0  0  0  0  0  0999 V2000
   -4.6231  -16.8783   68.7965 C   0  0  0  0  0  0  0  0  0  0  0  0
   -3.0104  -16.1055   70.0973 C   0  0  0  0  0  0  0  0  0  0  0  0
   -2.7605  -18.0733   71.6829 C   0  0  0  0  0  0  0  0  0  0  0  0
   -2.5063  -20.0824   72.9857 C   0  0  0  0  0  0  0  0  0  0  0  0
   -1.8968  -17.4462   72.5459 C   0  0  0  0  0  0  0  0  0  0  0  0
   -3.9260  -14.4399   65.6967 C   0  0  0  0  0  0  0  0  0  0  0  0
   -2.9045  -14.3497   64.7590 C   0  0  0  0  0  0  0  0  0  0  0  0
   -2.6328  -11.9058   65.0616 C   0  0  0  0  0  0  0  0  0  0  0  0
   -2.9781  -11.6333   67.4971 C   0  0  0  0  0  0  0  0  0  0  0  0
   -1.1773  -11.7710   69.0763 C   0  0  0  0  0  0  0  0  0  0  0  0
   -1.1418  -16.5360   62.3620 N   0  0  0  0  0  0  0  0  0  0  0  0
   -1.4483  -15.3956   63.1316 C   0  0  0  0  0  0  0  0  0  0  0  0
   -0.8027  -14.3170   62.9659 N   0  0  0  0  0  4  0  0  0  0  0  0
   -2.5031  -15.4760   64.1162 C   0  0  0  0  0  0  0  0  0  0  0  0
   -3.0920  -16.7297   64.3737 C   0  0  0  0  0  0  0  0  0  0  0  0
   -4.1030  -16.8084   65.3044 C   0  0  0  0  0  0  0  0  0  0  0  0
   -4.5154  -15.6565   65.9632 C   0  0  0  0  0  0  0  0  0  0  0  0
   -5.5630  -15.7712   66.9202 N   0  0  0  0  0  0  0  0  0  0  0  0
   -5.6327  -16.9677   67.7210 C   0  0  0  0  0  0  0  0  0  0  0  0
   -4.3248  -17.7925   69.7379 N   0  0  0  0  0  0  0  0  0  0  0  0
   -3.3502  -17.3636   70.5493 C   0  0  0  0  0  0  0  0  0  0  0  0
   -3.7947  -15.8385   69.0386 N   0  0  0  0  0  0  0  0  0  0  0  0
   -3.0673  -19.3980   71.9032 C   0  0  0  0  0  0  0  0  0  0  0  0
   -1.6464  -19.4416   73.8368 C   0  0  0  0  0  0  0  0  0  0  0  0
   -1.3243  -18.1113   73.6344 C   0  0  0  0  0  0  0  0  0  0  0  0
   -2.3342  -13.1429   64.5098 O   0  0  0  0  0  0  0  0  0  0  0  0
   -2.1014  -11.8641   66.4563 C   0  0  0  0  0  0  0  0  0  0  0  0
   -2.5140  -11.5884   68.7914 C   0  0  0  0  0  0  0  0  0  0  0  0
   -0.3672  -11.9924   68.0256 N   0  0  0  0  0  0  0  0  0  0  0  0
   -0.7812  -12.0428   66.7557 C   0  0  0  0  0  0  0  0  0  0  0  0
 19  1  1  0
  1 20  2  0
  1 22  1  0
  2 21  2  0
 22  2  1  0
  3  5  2  0
 21  3  1  0
  3 23  1  0
 23  4  2  0
  4 24  1  0
  5 25  1  0
  6  7  2  0
 17  6  1  0
  7 14  1  0
  7 26  1  0
  8 26  1  1
  8 27  1  0
 27  9  2  0
  9 28  1  0
 28 10  2  0
 10 29  1  0
 12 11  1  0
 12 13  2  0
 14 12  1  0
 15 14  2  0
 16 15  1  0
 17 16  2  0
 18 17  1  0
 19 18  1  6
 20 21  1  0
 24 25  2  0
 27 30  1  0
 29 30  2  0
M  CHG  1  13   1
M  END
$$$$
