
     RDKit          3D

 30 33  0  0  0  0  0  0  0  0999 V2000
   -6.4506  -16.2785   67.6795 C   0  0  0  0  0  0  0  0  0  0  0  0
   -8.3759  -15.6899   66.7648 C   0  0  0  0  0  0  0  0  0  0  0  0
   -9.1371  -13.9518   68.4527 C   0  0  0  0  0  0  0  0  0  0  0  0
   -9.6905  -12.2938   70.1089 C   0  0  0  0  0  0  0  0  0  0  0  0
  -10.3381  -13.6914   67.8414 C   0  0  0  0  0  0  0  0  0  0  0  0
   -3.5770  -15.5385   66.0489 C   0  0  0  0  0  0  0  0  0  0  0  0
   -2.7788  -14.8310   65.1584 C   0  0  0  0  0  0  0  0  0  0  0  0
   -2.9263  -12.7181   66.4436 C   0  0  0  0  0  0  0  0  0  0  0  0
   -0.5882  -12.6521   67.2525 C   0  0  0  0  0  0  0  0  0  0  0  0
   -0.0333  -12.6318   69.5865 C   0  0  0  0  0  0  0  0  0  0  0  0
   -0.9008  -15.4255   62.0407 N   0  0  0  0  0  0  0  0  0  0  0  0
   -1.5321  -14.7207   63.0856 C   0  0  0  0  0  0  0  0  0  0  0  0
   -1.3742  -13.4680   63.2018 N   0  0  0  0  0  4  0  0  0  0  0  0
   -2.3550  -15.4473   64.0255 C   0  0  0  0  0  0  0  0  0  0  0  0
   -2.7011  -16.7805   63.7297 C   0  0  0  0  0  0  0  0  0  0  0  0
   -3.4921  -17.4727   64.6184 C   0  0  0  0  0  0  0  0  0  0  0  0
   -3.9271  -16.8434   65.7785 C   0  0  0  0  0  0  0  0  0  0  0  0
   -4.7434  -17.5864   66.6774 N   0  0  0  0  0  0  0  0  0  0  0  0
   -5.1580  -16.9582   67.9066 C   0  0  0  0  0  0  0  0  0  0  0  0
   -7.0410  -15.3357   68.4368 N   0  0  0  0  0  0  0  0  0  0  0  0
   -8.2130  -14.9499   67.9174 C   0  0  0  0  0  0  0  0  0  0  0  0
   -7.2971  -16.4832   66.6463 N   0  0  0  0  0  0  0  0  0  0  0  0
   -8.8109  -13.2500   69.5922 C   0  0  0  0  0  0  0  0  0  0  0  0
  -10.8846  -12.0466   69.4865 C   0  0  0  0  0  0  0  0  0  0  0  0
  -11.2325  -12.7398   68.3408 C   0  0  0  0  0  0  0  0  0  0  0  0
   -2.4425  -13.5463   65.4416 O   0  0  0  0  0  0  0  0  0  0  0  0
   -1.9337  -12.6873   67.5585 C   0  0  0  0  0  0  0  0  0  0  0  0
    0.3469  -12.6249   68.2611 C   0  0  0  0  0  0  0  0  0  0  0  0
   -1.3560  -12.6665   69.8285 N   0  0  0  0  0  0  0  0  0  0  0  0
   -2.2932  -12.6937   68.8759 C   0  0  0  0  0  0  0  0  0  0  0  0
 19  1  1  0
  1 20  2  0
  1 22  1  0
  2 21  2  0
 22  2  1  0
  3  5  2  0
 21  3  1  0
  3 23  1  0
 23  4  2  0
  4 24  1  0
  5 25  1  0
  6  7  2  0
 17  6  1  0
  7 14  1  0
  7 26  1  0
  8 26  1  1
  8 27  1  0
 27  9  2  0
  9 28  1  0
 28 10  2  0
 10 29  1  0
 12 11  1  0
 12 13  2  0
 14 12  1  0
 15 14  2  0
 16 15  1  0
 17 16  2  0
 18 17  1  0
 19 18  1  6
 20 21  1  0
 24 25  2  0
 27 30  1  0
 29 30  2  0
M  CHG  1  13   1
M  END
$$$$
