
     RDKit          3D

 30 33  0  0  0  0  0  0  0  0999 V2000
   -5.9709  -15.6826   67.9030 C   0  0  0  0  0  0  0  0  0  0  0  0
   -6.8548  -13.8054   68.5661 C   0  0  0  0  0  0  0  0  0  0  0  0
   -9.3199  -14.2887   68.1289 C   0  0  0  0  0  0  0  0  0  0  0  0
  -11.1128  -12.7686   68.6539 C   0  0  0  0  0  0  0  0  0  0  0  0
  -10.2534  -15.1473   67.6036 C   0  0  0  0  0  0  0  0  0  0  0  0
   -3.3205  -15.2401   65.5360 C   0  0  0  0  0  0  0  0  0  0  0  0
   -2.4600  -14.6220   64.6693 C   0  0  0  0  0  0  0  0  0  0  0  0
   -2.5637  -12.4037   65.7229 C   0  0  0  0  0  0  0  0  0  0  0  0
   -1.6286  -13.4372   67.8079 C   0  0  0  0  0  0  0  0  0  0  0  0
   -1.0247  -12.0530   69.6631 C   0  0  0  0  0  0  0  0  0  0  0  0
   -0.8785  -13.3300   62.6305 N   0  0  0  0  0  0  0  0  0  0  0  0
   -1.2581  -14.6807   62.5062 C   0  0  0  0  0  0  0  0  0  0  0  0
   -0.8100  -15.3887   61.5514 N   0  0  0  0  0  4  0  0  0  0  0  0
   -2.1623  -15.2555   63.4819 C   0  0  0  0  0  0  0  0  0  0  0  0
   -2.7442  -16.4901   63.2126 C   0  0  0  0  0  0  0  0  0  0  0  0
   -3.6016  -17.0848   64.0990 C   0  0  0  0  0  0  0  0  0  0  0  0
   -3.9204  -16.4829   65.2897 C   0  0  0  0  0  0  0  0  0  0  0  0
   -4.7842  -17.0616   66.2519 N   0  0  0  0  0  0  0  0  0  0  0  0
   -4.8963  -16.6817   67.6107 C   0  0  0  0  0  0  0  0  0  0  0  0
   -7.2965  -15.7442   67.7475 N   0  0  0  0  0  0  0  0  0  0  0  0
   -7.8981  -14.6009   68.1452 C   0  0  0  0  0  0  0  0  0  0  0  0
   -5.7028  -14.4538   68.4205 N   0  0  0  0  0  0  0  0  0  0  0  0
   -9.7522  -13.0968   68.6549 C   0  0  0  0  0  0  0  0  0  0  0  0
  -12.0342  -13.6431   68.1224 C   0  0  0  0  0  0  0  0  0  0  0  0
  -11.6062  -14.8354   67.5956 C   0  0  0  0  0  0  0  0  0  0  0  0
   -1.9238  -13.4057   64.9987 O   0  0  0  0  0  0  0  0  0  0  0  0
   -2.0217  -12.3203   67.1016 C   0  0  0  0  0  0  0  0  0  0  0  0
   -1.1332  -13.2976   69.0823 C   0  0  0  0  0  0  0  0  0  0  0  0
   -1.4130  -10.9568   68.9637 N   0  0  0  0  0  0  0  0  0  0  0  0
   -1.8928  -11.0954   67.7287 C   0  0  0  0  0  0  0  0  0  0  0  0
 19  1  1  0
  1 20  2  0
  1 22  1  0
  2 21  2  0
 22  2  1  0
  3  5  2  0
 21  3  1  0
  3 23  1  0
 23  4  2  0
  4 24  1  0
  5 25  1  0
  6  7  2  0
 17  6  1  0
  7 14  1  0
  7 26  1  0
 26  8  1  0
  8 27  1  0
 27  9  2  0
  9 28  1  0
 28 10  2  0
 10 29  1  0
 12 11  1  0
 12 13  2  0
 14 12  1  0
 15 14  2  0
 16 15  1  0
 17 16  2  0
 18 17  1  0
 18 19  1  0
 20 21  1  0
 24 25  2  0
 27 30  1  0
 29 30  2  0
M  CHG  1  13   1
M  END
$$$$
