
     RDKit          3D

 30 33  0  0  0  0  0  0  0  0999 V2000
   -4.4415  -13.3468   68.5146 C   0  0  0  0  0  0  0  0  0  0  0  0
   -4.1065  -15.0244   69.8629 C   0  0  0  0  0  0  0  0  0  0  0  0
   -6.5062  -15.5250   70.5645 C   0  0  0  0  0  0  0  0  0  0  0  0
   -8.7084  -15.5567   71.5394 C   0  0  0  0  0  0  0  0  0  0  0  0
   -6.3473  -16.8248   70.9764 C   0  0  0  0  0  0  0  0  0  0  0  0
   -2.8947  -14.1106   65.5622 C   0  0  0  0  0  0  0  0  0  0  0  0
   -2.4591  -14.8723   64.5116 C   0  0  0  0  0  0  0  0  0  0  0  0
   -4.5455  -16.1601   64.3388 C   0  0  0  0  0  0  0  0  0  0  0  0
   -5.9582  -16.5850   66.3670 C   0  0  0  0  0  0  0  0  0  0  0  0
   -5.1300  -17.9683   68.1343 C   0  0  0  0  0  0  0  0  0  0  0  0
    0.0680  -14.5856   61.8228 N   0  0  0  0  0  0  0  0  0  0  0  0
   -0.7561  -15.2463   62.7546 C   0  0  0  0  0  0  0  0  0  0  0  0
   -1.0245  -16.4799   62.6136 N   0  0  0  0  0  4  0  0  0  0  0  0
   -1.2911  -14.5045   63.8787 C   0  0  0  0  0  0  0  0  0  0  0  0
   -0.6055  -13.3811   64.3293 C   0  0  0  0  0  0  0  0  0  0  0  0
   -1.0656  -12.6378   65.3831 C   0  0  0  0  0  0  0  0  0  0  0  0
   -2.2237  -12.9748   66.0364 C   0  0  0  0  0  0  0  0  0  0  0  0
   -2.7565  -12.2307   67.1178 N   0  0  0  0  0  0  0  0  0  0  0  0
   -4.1006  -12.2455   67.5611 C   0  0  0  0  0  0  0  0  0  0  0  0
   -5.6163  -13.7612   68.9977 N   0  0  0  0  0  0  0  0  0  0  0  0
   -5.4665  -14.8048   69.8435 C   0  0  0  0  0  0  0  0  0  0  0  0
   -3.4947  -14.1515   69.0676 N   0  0  0  0  0  0  0  0  0  0  0  0
   -7.6902  -14.8906   70.8475 C   0  0  0  0  0  0  0  0  0  0  0  0
   -8.5301  -16.8607   71.9443 C   0  0  0  0  0  0  0  0  0  0  0  0
   -7.3482  -17.4982   71.6635 C   0  0  0  0  0  0  0  0  0  0  0  0
   -3.1843  -15.9663   64.1210 O   0  0  0  0  0  0  0  0  0  0  0  0
   -4.7854  -16.7753   65.6675 C   0  0  0  0  0  0  0  0  0  0  0  0
   -6.1236  -17.1814   67.5941 C   0  0  0  0  0  0  0  0  0  0  0  0
   -3.9775  -18.1523   67.4418 N   0  0  0  0  0  0  0  0  0  0  0  0
   -3.8201  -17.5729   66.2526 C   0  0  0  0  0  0  0  0  0  0  0  0
 19  1  1  0
  1 20  2  0
  1 22  1  0
  2 21  2  0
 22  2  1  0
  3  5  2  0
 21  3  1  0
  3 23  1  0
 23  4  2  0
  4 24  1  0
  5 25  1  0
  6  7  2  0
 17  6  1  0
  7 14  1  0
  7 26  1  0
 26  8  1  0
  8 27  1  0
 27  9  2  0
  9 28  1  0
 28 10  2  0
 10 29  1  0
 12 11  1  0
 12 13  2  0
 14 12  1  0
 15 14  2  0
 16 15  1  0
 17 16  2  0
 18 17  1  0
 18 19  1  0
 20 21  1  0
 24 25  2  0
 27 30  1  0
 29 30  2  0
M  CHG  1  13   1
M  END
$$$$
