
     RDKit          3D

 24 28  0  0  0  0  0  0  0  0999 V2000
  -18.1462  -27.8673  -18.8158 N   0  0  0  0  0  0  0  0  0  0  0  0
  -21.7716  -24.8753  -13.8904 C   0  0  0  0  0  0  0  0  0  0  0  0
  -22.4698  -23.9584  -14.6498 C   0  0  0  0  0  0  0  0  0  0  0  0
  -22.5908  -24.1380  -16.0074 C   0  0  0  0  0  0  0  0  0  0  0  0
  -22.0082  -25.2461  -16.6144 C   0  0  0  0  0  0  0  0  0  0  0  0
  -19.5852  -27.2994  -17.2434 C   0  0  0  0  0  0  0  0  0  0  0  0
  -18.0291  -26.5467  -18.6997 C   0  0  0  0  0  0  0  0  0  0  0  0
  -18.2043  -23.8986  -18.0489 C   0  0  0  0  0  0  0  0  0  0  0  0
  -18.9335  -26.1782  -17.7092 C   0  0  0  0  0  0  0  0  0  0  0  0
  -18.7136  -30.4887  -16.7018 C   0  0  0  0  0  0  0  0  0  0  0  0
  -20.0479  -27.9157  -14.9713 N   0  0  0  0  0  0  0  0  0  0  0  0
  -20.4196  -27.0470  -13.9382 C   0  0  0  0  0  0  0  0  0  0  0  0
  -20.1044  -27.2154  -12.7265 O   0  0  0  0  0  0  0  0  0  0  0  0
  -20.6122  -27.4092  -16.2147 C   0  0  1  0  0  0  0  0  0  0  0  0
  -17.2379  -25.6258  -19.3447 C   0  0  0  0  0  0  0  0  0  0  0  0
  -17.3099  -24.2882  -19.0327 C   0  0  0  0  0  0  0  0  0  0  0  0
  -18.9965  -24.8291  -17.4045 C   0  0  0  0  0  0  0  0  0  0  0  0
  -19.4199  -29.8159  -17.8625 C   0  0  2  0  0  0  0  0  0  0  0  0
  -19.6974  -31.6346  -16.4209 C   0  0  0  0  0  0  0  0  0  0  0  0
  -21.0133  -30.8963  -16.5395 C   0  0  0  0  0  0  0  0  0  0  0  0
  -21.3073  -26.1759  -15.8839 C   0  0  0  0  0  0  0  0  0  0  0  0
  -21.2019  -25.9710  -14.5289 C   0  0  0  0  0  0  0  0  0  0  0  0
  -19.0774  -28.3626  -17.9525 C   0  0  0  0  0  0  0  0  0  0  0  0
  -20.8222  -30.0539  -17.6958 N   0  0  0  0  0  4  0  0  0  0  0  0
  1  7  1  0
 23  1  1  0
  3  2  2  0
 22  2  1  0
  4  3  1  0
  5  4  2  0
 21  5  1  0
  6  9  1  0
 14  6  1  6
 23  6  2  0
  9  7  2  0
  7 15  1  0
  8 16  1  0
 17  8  2  0
  9 17  1  0
 18 10  1  0
 10 19  1  0
 11 12  1  0
 14 11  1  0
 12 13  2  0
 12 22  1  0
 14 21  1  0
 15 16  2  0
 18 23  1  1
 18 24  1  0
 19 20  1  0
 20 24  1  0
 21 22  2  0
M  CHG  1  24   1
M  END
$$$$
