
     RDKit          3D

 24 28  0  0  0  0  0  0  0  0999 V2000
  -19.4398  -26.5687  -15.5212 N   0  0  0  0  0  0  0  0  0  0  0  0
  -23.0225  -27.0540  -21.0988 C   0  0  0  0  0  0  0  0  0  0  0  0
  -21.9181  -26.6222  -21.7974 C   0  0  0  0  0  0  0  0  0  0  0  0
  -20.6741  -26.6354  -21.1775 C   0  0  0  0  0  0  0  0  0  0  0  0
  -20.5140  -27.0645  -19.8971 C   0  0  0  0  0  0  0  0  0  0  0  0
  -20.9353  -27.2990  -16.9133 C   0  0  0  0  0  0  0  0  0  0  0  0
  -20.3207  -25.5679  -15.6666 C   0  0  0  0  0  0  0  0  0  0  0  0
  -22.4174  -23.8715  -16.3606 C   0  0  0  0  0  0  0  0  0  0  0  0
  -21.2845  -25.9957  -16.5442 C   0  0  0  0  0  0  0  0  0  0  0  0
  -17.4874  -28.6887  -16.4611 C   0  0  0  0  0  0  0  0  0  0  0  0
  -23.1439  -28.2232  -17.6161 N   0  0  0  0  0  0  0  0  0  0  0  0
  -23.8644  -27.9569  -18.7976 C   0  0  0  0  0  0  0  0  0  0  0  0
  -25.1085  -28.0675  -19.0354 O   0  0  0  0  0  0  0  0  0  0  0  0
  -21.7833  -28.0659  -17.8231 C   0  0  1  0  0  0  0  0  0  0  0  0
  -20.3900  -24.2984  -15.1272 C   0  0  0  0  0  0  0  0  0  0  0  0
  -21.4242  -23.4696  -15.4732 C   0  0  0  0  0  0  0  0  0  0  0  0
  -22.3411  -25.1371  -16.8928 C   0  0  0  0  0  0  0  0  0  0  0  0
  -18.9788  -28.8723  -16.3375 C   0  0  2  0  0  0  0  0  0  0  0  0
  -16.9977  -30.1058  -16.1136 C   0  0  0  0  0  0  0  0  0  0  0  0
  -17.9961  -30.5179  -15.0620 C   0  0  0  0  0  0  0  0  0  0  0  0
  -21.6524  -27.5042  -19.1964 C   0  0  0  0  0  0  0  0  0  0  0  0
  -22.8917  -27.5010  -19.7791 C   0  0  0  0  0  0  0  0  0  0  0  0
  -19.7795  -27.6547  -16.2728 C   0  0  0  0  0  0  0  0  0  0  0  0
  -19.2796  -29.9657  -15.5049 N   0  0  0  0  0  4  0  0  0  0  0  0
  1  7  1  0
 23  1  1  0
  3  2  2  0
 22  2  1  0
  4  3  1  0
  5  4  2  0
 21  5  1  0
  6  9  1  0
 14  6  1  1
 23  6  2  0
  9  7  2  0
  7 15  1  0
  8 16  1  0
 17  8  2  0
  9 17  1  0
 10 18  1  1
 19 10  1  1
 11 12  1  0
 14 11  1  0
 12 13  2  0
 12 22  1  0
 14 21  1  0
 15 16  2  0
 18 23  1  1
 18 24  1  0
 20 19  1  1
 24 20  1  6
 21 22  2  0
M  CHG  1  24   1
M  END
$$$$
