
     RDKit          3D

 24 28  0  0  0  0  0  0  0  0999 V2000
  -20.6844  -26.4755  -14.1536 N   0  0  0  0  0  0  0  0  0  0  0  0
  -20.3060  -26.9241  -20.9273 C   0  0  0  0  0  0  0  0  0  0  0  0
  -19.0291  -26.4151  -21.0517 C   0  0  0  0  0  0  0  0  0  0  0  0
  -18.1931  -26.3781  -19.9610 C   0  0  0  0  0  0  0  0  0  0  0  0
  -18.6365  -26.8549  -18.7315 C   0  0  0  0  0  0  0  0  0  0  0  0
  -20.7254  -27.0971  -16.2697 C   0  0  0  0  0  0  0  0  0  0  0  0
  -20.9937  -25.3734  -14.8323 C   0  0  0  0  0  0  0  0  0  0  0  0
  -21.5879  -23.4643  -16.6950 C   0  0  0  0  0  0  0  0  0  0  0  0
  -21.0222  -25.7551  -16.1696 C   0  0  0  0  0  0  0  0  0  0  0  0
  -20.5011  -29.0933  -13.0342 C   0  0  0  0  0  0  0  0  0  0  0  0
  -21.9625  -28.2715  -17.9568 N   0  0  0  0  0  0  0  0  0  0  0  0
  -22.0092  -27.9540  -19.3195 C   0  0  0  0  0  0  0  0  0  0  0  0
  -23.0194  -28.1429  -20.0542 O   0  0  0  0  0  0  0  0  0  0  0  0
  -20.6358  -27.9362  -17.4583 C   0  0  1  0  0  0  0  0  0  0  0  0
  -21.2529  -24.0826  -14.4363 C   0  0  0  0  0  0  0  0  0  0  0  0
  -21.5540  -23.1063  -15.3569 C   0  0  0  0  0  0  0  0  0  0  0  0
  -21.3265  -24.7633  -17.0863 C   0  0  0  0  0  0  0  0  0  0  0  0
  -20.1595  -28.9113  -14.5000 C   0  0  2  0  0  0  0  0  0  0  0  0
  -20.7106  -30.6148  -12.9976 C   0  0  0  0  0  0  0  0  0  0  0  0
  -21.5020  -30.8093  -14.2729 C   0  0  0  0  0  0  0  0  0  0  0  0
  -19.9026  -27.3676  -18.5774 C   0  0  0  0  0  0  0  0  0  0  0  0
  -20.7170  -27.3919  -19.6844 C   0  0  0  0  0  0  0  0  0  0  0  0
  -20.5135  -27.5415  -14.9856 C   0  0  0  0  0  0  0  0  0  0  0  0
  -20.8282  -29.9533  -15.2197 N   0  0  0  0  0  4  0  0  0  0  0  0
  1  7  1  0
 23  1  1  0
  3  2  2  0
 22  2  1  0
  4  3  1  0
  5  4  2  0
 21  5  1  0
  6  9  1  0
 14  6  1  1
 23  6  2  0
  9  7  2  0
  7 15  1  0
  8 16  1  0
 17  8  2  0
  9 17  1  0
 18 10  1  0
 10 19  1  0
 11 12  1  0
 14 11  1  0
 12 13  2  0
 12 22  1  0
 14 21  1  0
 15 16  2  0
 18 23  1  6
 18 24  1  0
 19 20  1  0
 20 24  1  0
 21 22  2  0
M  CHG  1  24   1
M  END
$$$$
