
     RDKit          3D

 24 28  0  0  0  0  0  0  0  0999 V2000
  -17.9558  -28.5411  -17.5373 N   0  0  0  0  0  0  0  0  0  0  0  0
  -22.3583  -24.7760  -14.7831 C   0  0  0  0  0  0  0  0  0  0  0  0
  -21.7082  -23.5585  -14.7775 C   0  0  0  0  0  0  0  0  0  0  0  0
  -20.7616  -23.2788  -15.7343 C   0  0  0  0  0  0  0  0  0  0  0  0
  -20.4604  -24.2252  -16.7086 C   0  0  0  0  0  0  0  0  0  0  0  0
  -19.6776  -27.1821  -17.7703 C   0  0  0  0  0  0  0  0  0  0  0  0
  -17.5452  -27.6047  -18.3892 C   0  0  0  0  0  0  0  0  0  0  0  0
  -17.2439  -25.4646  -20.0613 C   0  0  0  0  0  0  0  0  0  0  0  0
  -18.6251  -26.7416  -18.5430 C   0  0  0  0  0  0  0  0  0  0  0  0
  -19.2668  -30.5530  -16.0241 C   0  0  0  0  0  0  0  0  0  0  0  0
  -21.9370  -27.5947  -17.0767 N   0  0  0  0  0  0  0  0  0  0  0  0
  -22.5752  -27.0360  -15.9629 C   0  0  0  0  0  0  0  0  0  0  0  0
  -23.4575  -27.6313  -15.2823 O   0  0  0  0  0  0  0  0  0  0  0  0
  -21.0078  -26.6078  -17.6092 C   0  0  1  0  0  0  0  0  0  0  0  0
  -16.3542  -27.4078  -19.0471 C   0  0  0  0  0  0  0  0  0  0  0  0
  -16.1810  -26.3374  -19.8931 C   0  0  0  0  0  0  0  0  0  0  0  0
  -18.4381  -25.6682  -19.3972 C   0  0  0  0  0  0  0  0  0  0  0  0
  -19.9647  -29.2164  -16.1821 C   0  0  2  0  0  0  0  0  0  0  0  0
  -19.7336  -30.9305  -14.6101 C   0  0  0  0  0  0  0  0  0  0  0  0
  -19.5800  -29.5976  -13.9099 C   0  0  0  0  0  0  0  0  0  0  0  0
  -21.0916  -25.4459  -16.7395 C   0  0  0  0  0  0  0  0  0  0  0  0
  -22.0331  -25.6988  -15.7706 C   0  0  0  0  0  0  0  0  0  0  0  0
  -19.2407  -28.3227  -17.1384 C   0  0  0  0  0  0  0  0  0  0  0  0
  -20.0930  -28.6521  -14.8722 N   0  0  0  0  0  4  0  0  0  0  0  0
  1  7  1  0
 23  1  1  0
  3  2  2  0
 22  2  1  0
  4  3  1  0
  5  4  2  0
 21  5  1  0
  6  9  1  0
 14  6  1  1
 23  6  2  0
  9  7  2  0
  7 15  1  0
  8 16  1  0
 17  8  2  0
  9 17  1  0
 18 10  1  0
 10 19  1  0
 11 12  1  0
 14 11  1  0
 12 13  2  0
 12 22  1  0
 14 21  1  0
 15 16  2  0
 18 23  1  6
 18 24  1  0
 19 20  1  0
 20 24  1  0
 21 22  2  0
M  CHG  1  24   1
M  END
$$$$
