
     RDKit          3D

 24 28  0  0  0  0  0  0  0  0999 V2000
  -22.6825  -29.2879  -14.3133 N   0  0  0  0  0  0  0  0  0  0  0  0
  -20.2341  -23.9959  -16.9215 C   0  0  0  0  0  0  0  0  0  0  0  0
  -21.1901  -23.2375  -16.2848 C   0  0  0  0  0  0  0  0  0  0  0  0
  -21.8040  -23.7374  -15.1424 C   0  0  0  0  0  0  0  0  0  0  0  0
  -21.4872  -24.9574  -14.6319 C   0  0  0  0  0  0  0  0  0  0  0  0
  -20.9958  -27.9372  -14.5088 C   0  0  0  0  0  0  0  0  0  0  0  0
  -22.3361  -28.9553  -13.0611 C   0  0  0  0  0  0  0  0  0  0  0  0
  -21.1773  -27.9466  -10.7383 C   0  0  0  0  0  0  0  0  0  0  0  0
  -21.2678  -28.0988  -13.1463 C   0  0  0  0  0  0  0  0  0  0  0  0
  -22.4973  -30.2541  -17.1115 C   0  0  0  0  0  0  0  0  0  0  0  0
  -19.0840  -27.3650  -16.0066 N   0  0  0  0  0  0  0  0  0  0  0  0
  -18.9702  -26.2810  -16.8998 C   0  0  0  0  0  0  0  0  0  0  0  0
  -18.2407  -26.1498  -17.9328 O   0  0  0  0  0  0  0  0  0  0  0  0
  -19.9245  -27.0480  -14.9521 C   0  0  1  0  0  0  0  0  0  0  0  0
  -22.8371  -29.3164  -11.8258 C   0  0  0  0  0  0  0  0  0  0  0  0
  -22.2620  -28.8164  -10.6877 C   0  0  0  0  0  0  0  0  0  0  0  0
  -20.6848  -27.5918  -11.9722 C   0  0  0  0  0  0  0  0  0  0  0  0
  -22.0071  -28.8968  -16.6747 C   0  0  2  0  0  0  0  0  0  0  0  0
  -22.8565  -29.9665  -18.5802 C   0  0  0  0  0  0  0  0  0  0  0  0
  -23.3832  -28.5570  -18.4888 C   0  0  0  0  0  0  0  0  0  0  0  0
  -20.5070  -25.7203  -15.2934 C   0  0  0  0  0  0  0  0  0  0  0  0
  -19.8859  -25.2560  -16.4221 C   0  0  0  0  0  0  0  0  0  0  0  0
  -21.8817  -28.6837  -15.2371 C   0  0  0  0  0  0  0  0  0  0  0  0
  -22.5345  -27.8866  -17.4996 N   0  0  0  0  0  4  0  0  0  0  0  0
  1  7  1  0
 23  1  1  0
  3  2  2  0
 22  2  1  0
  4  3  1  0
  5  4  2  0
 21  5  1  0
  6  9  1  0
 14  6  1  6
 23  6  2  0
  9  7  2  0
  7 15  1  0
  8 16  1  0
 17  8  2  0
  9 17  1  0
 10 18  1  1
 19 10  1  1
 11 12  1  0
 14 11  1  0
 12 13  2  0
 12 22  1  0
 14 21  1  0
 15 16  2  0
 18 23  1  1
 18 24  1  0
 20 19  1  1
 24 20  1  6
 21 22  2  0
M  CHG  1  24   1
M  END
$$$$
