
     RDKit          3D

 24 28  0  0  0  0  0  0  0  0999 V2000
  -20.1522  -26.0330  -17.6156 N   0  0  0  0  0  0  0  0  0  0  0  0
  -23.2666  -30.2187  -13.7396 C   0  0  0  0  0  0  0  0  0  0  0  0
  -23.3219  -31.1399  -14.7660 C   0  0  0  0  0  0  0  0  0  0  0  0
  -22.4423  -31.0517  -15.8188 C   0  0  0  0  0  0  0  0  0  0  0  0
  -21.4961  -30.0322  -15.8477 C   0  0  0  0  0  0  0  0  0  0  0  0
  -20.5032  -26.9572  -15.6436 C   0  0  0  0  0  0  0  0  0  0  0  0
  -20.6450  -25.0561  -16.8580 C   0  0  0  0  0  0  0  0  0  0  0  0
  -21.6721  -23.4669  -14.8866 C   0  0  0  0  0  0  0  0  0  0  0  0
  -20.8700  -25.6293  -15.6107 C   0  0  0  0  0  0  0  0  0  0  0  0
  -19.0211  -28.2556  -18.9300 C   0  0  0  0  0  0  0  0  0  0  0  0
  -21.0169  -27.3624  -13.3354 N   0  0  0  0  0  0  0  0  0  0  0  0
  -22.0762  -28.1369  -12.8476 C   0  0  0  0  0  0  0  0  0  0  0  0
  -22.6858  -27.8989  -11.7670 O   0  0  0  0  0  0  0  0  0  0  0  0
  -20.5581  -27.9562  -14.5835 C   0  0  1  0  0  0  0  0  0  0  0  0
  -20.9227  -23.7343  -17.1144 C   0  0  0  0  0  0  0  0  0  0  0  0
  -21.4399  -22.9167  -16.1369 C   0  0  0  0  0  0  0  0  0  0  0  0
  -21.3907  -24.7961  -14.6355 C   0  0  0  0  0  0  0  0  0  0  0  0
  -19.5283  -28.4681  -17.5172 C   0  0  2  0  0  0  0  0  0  0  0  0
  -17.9885  -29.3899  -19.0146 C   0  0  0  0  0  0  0  0  0  0  0  0
  -17.3364  -29.2636  -17.6547 C   0  0  0  0  0  0  0  0  0  0  0  0
  -21.4170  -29.1008  -14.8399 C   0  0  0  0  0  0  0  0  0  0  0  0
  -22.3089  -29.2128  -13.8001 C   0  0  0  0  0  0  0  0  0  0  0  0
  -20.0503  -27.2003  -16.9192 C   0  0  0  0  0  0  0  0  0  0  0  0
  -18.4525  -29.0427  -16.7667 N   0  0  0  0  0  4  0  0  0  0  0  0
  1  7  1  0
 23  1  1  0
  3  2  2  0
 22  2  1  0
  4  3  1  0
  5  4  2  0
 21  5  1  0
  6  9  1  0
 14  6  1  6
 23  6  2  0
  9  7  2  0
  7 15  1  0
  8 16  1  0
 17  8  2  0
  9 17  1  0
 18 10  1  0
 10 19  1  0
 11 12  1  0
 14 11  1  0
 12 13  2  0
 12 22  1  0
 14 21  1  0
 15 16  2  0
 18 23  1  1
 18 24  1  0
 19 20  1  0
 20 24  1  0
 21 22  2  0
M  CHG  1  24   1
M  END
$$$$
