
     RDKit          3D

 24 28  0  0  0  0  0  0  0  0999 V2000
  -22.7000  -26.0914  -15.8338 N   0  0  0  0  0  0  0  0  0  0  0  0
  -17.6769  -28.4457  -19.0141 C   0  0  0  0  0  0  0  0  0  0  0  0
  -17.9711  -27.6367  -20.0881 C   0  0  0  0  0  0  0  0  0  0  0  0
  -18.7216  -26.4846  -19.8854 C   0  0  0  0  0  0  0  0  0  0  0  0
  -19.1753  -26.1301  -18.6534 C   0  0  0  0  0  0  0  0  0  0  0  0
  -20.5493  -26.3443  -15.9697 C   0  0  0  0  0  0  0  0  0  0  0  0
  -22.1837  -24.8554  -15.7671 C   0  0  0  0  0  0  0  0  0  0  0  0
  -20.5785  -22.5821  -15.6610 C   0  0  0  0  0  0  0  0  0  0  0  0
  -20.8197  -24.9771  -15.8498 C   0  0  0  0  0  0  0  0  0  0  0  0
  -22.8155  -28.9543  -17.1866 C   0  0  0  0  0  0  0  0  0  0  0  0
  -18.7260  -27.9875  -15.5212 N   0  0  0  0  0  0  0  0  0  0  0  0
  -18.0209  -28.7818  -16.4474 C   0  0  0  0  0  0  0  0  0  0  0  0
  -17.3932  -29.8736  -16.2724 O   0  0  0  0  0  0  0  0  0  0  0  0
  -19.1755  -26.8199  -16.1157 C   0  0  1  0  0  0  0  0  0  0  0  0
  -22.7605  -23.6078  -15.6323 C   0  0  0  0  0  0  0  0  0  0  0  0
  -21.9647  -22.4942  -15.5809 C   0  0  0  0  0  0  0  0  0  0  0  0
  -20.0123  -23.8280  -15.7956 C   0  0  0  0  0  0  0  0  0  0  0  0
  -22.0012  -28.4715  -16.0131 C   0  0  2  0  0  0  0  0  0  0  0  0
  -22.5589  -30.4696  -17.1052 C   0  0  0  0  0  0  0  0  0  0  0  0
  -21.1251  -30.5058  -16.6411 C   0  0  0  0  0  0  0  0  0  0  0  0
  -18.8652  -26.9668  -17.5651 C   0  0  0  0  0  0  0  0  0  0  0  0
  -18.1297  -28.1096  -17.7333 C   0  0  0  0  0  0  0  0  0  0  0  0
  -21.7279  -27.0397  -15.9579 C   0  0  0  0  0  0  0  0  0  0  0  0
  -20.9956  -29.4000  -15.6879 N   0  0  0  0  0  4  0  0  0  0  0  0
  1  7  1  0
 23  1  1  0
  3  2  2  0
 22  2  1  0
  4  3  1  0
  5  4  2  0
 21  5  1  0
  6  9  1  0
 14  6  1  6
 23  6  2  0
  9  7  2  0
  7 15  1  0
  8 16  1  0
 17  8  2  0
  9 17  1  0
 10 18  1  1
 19 10  1  1
 11 12  1  0
 14 11  1  0
 12 13  2  0
 12 22  1  0
 14 21  1  0
 15 16  2  0
 18 23  1  6
 18 24  1  0
 20 19  1  1
 24 20  1  6
 21 22  2  0
M  CHG  1  24   1
M  END
$$$$
