
     RDKit          3D

 24 28  0  0  0  0  0  0  0  0999 V2000
  -21.7498  -26.3046  -14.5216 N   0  0  0  0  0  0  0  0  0  0  0  0
  -21.4919  -29.3709  -20.0923 C   0  0  0  0  0  0  0  0  0  0  0  0
  -22.7765  -28.9594  -20.3659 C   0  0  0  0  0  0  0  0  0  0  0  0
  -23.2782  -27.8301  -19.7296 C   0  0  0  0  0  0  0  0  0  0  0  0
  -22.5354  -27.1159  -18.8422 C   0  0  0  0  0  0  0  0  0  0  0  0
  -20.7850  -26.5072  -16.4544 C   0  0  0  0  0  0  0  0  0  0  0  0
  -21.6332  -25.0579  -15.0022 C   0  0  0  0  0  0  0  0  0  0  0  0
  -21.1151  -22.7468  -16.4672 C   0  0  0  0  0  0  0  0  0  0  0  0
  -21.0242  -25.1477  -16.2283 C   0  0  0  0  0  0  0  0  0  0  0  0
  -19.9841  -29.4063  -15.5939 C   0  0  0  0  0  0  0  0  0  0  0  0
  -19.1178  -27.8552  -17.7308 N   0  0  0  0  0  0  0  0  0  0  0  0
  -19.3587  -28.8791  -18.6686 C   0  0  0  0  0  0  0  0  0  0  0  0
  -18.6077  -29.8346  -19.0423 O   0  0  0  0  0  0  0  0  0  0  0  0
  -20.1711  -26.9561  -17.7021 C   0  0  1  0  0  0  0  0  0  0  0  0
  -21.9896  -23.8238  -14.4951 C   0  0  0  0  0  0  0  0  0  0  0  0
  -21.7317  -22.6914  -15.2213 C   0  0  0  0  0  0  0  0  0  0  0  0
  -20.7638  -23.9795  -16.9651 C   0  0  0  0  0  0  0  0  0  0  0  0
  -21.1973  -28.6593  -15.1004 C   0  0  2  0  0  0  0  0  0  0  0  0
  -20.1153  -30.7171  -14.7982 C   0  0  0  0  0  0  0  0  0  0  0  0
  -20.6726  -30.2181  -13.4894 C   0  0  0  0  0  0  0  0  0  0  0  0
  -21.2234  -27.5485  -18.5740 C   0  0  0  0  0  0  0  0  0  0  0  0
  -20.7017  -28.6584  -19.1833 C   0  0  0  0  0  0  0  0  0  0  0  0
  -21.2387  -27.2290  -15.3840 C   0  0  0  0  0  0  0  0  0  0  0  0
  -21.6078  -29.1474  -13.8464 N   0  0  0  0  0  4  0  0  0  0  0  0
  1  7  1  0
 23  1  1  0
  3  2  2  0
 22  2  1  0
  4  3  1  0
  5  4  2  0
 21  5  1  0
  6  9  1  0
 14  6  1  1
 23  6  2  0
  9  7  2  0
  7 15  1  0
  8 16  1  0
 17  8  2  0
  9 17  1  0
 10 18  1  1
 19 10  1  1
 11 12  1  0
 14 11  1  0
 12 13  2  0
 12 22  1  0
 14 21  1  0
 15 16  2  0
 18 23  1  1
 18 24  1  0
 20 19  1  1
 24 20  1  6
 21 22  2  0
M  CHG  1  24   1
M  END
$$$$
