
     RDKit          3D

 24 28  0  0  0  0  0  0  0  0999 V2000
  -19.8512  -25.8394  -17.5394 N   0  0  0  0  0  0  0  0  0  0  0  0
  -23.5892  -28.3377  -12.4784 C   0  0  0  0  0  0  0  0  0  0  0  0
  -24.7353  -28.4928  -13.2317 C   0  0  0  0  0  0  0  0  0  0  0  0
  -24.6611  -28.5036  -14.6044 C   0  0  0  0  0  0  0  0  0  0  0  0
  -23.4284  -28.3582  -15.2329 C   0  0  0  0  0  0  0  0  0  0  0  0
  -20.5673  -26.9398  -15.7668 C   0  0  0  0  0  0  0  0  0  0  0  0
  -20.3500  -24.9072  -16.7312 C   0  0  0  0  0  0  0  0  0  0  0  0
  -21.4887  -23.4506  -14.7192 C   0  0  0  0  0  0  0  0  0  0  0  0
  -20.8048  -25.5916  -15.6089 C   0  0  0  0  0  0  0  0  0  0  0  0
  -19.9801  -29.5766  -16.9814 C   0  0  0  0  0  0  0  0  0  0  0  0
  -20.1380  -27.8999  -13.6103 N   0  0  0  0  0  0  0  0  0  0  0  0
  -21.0531  -28.0080  -12.5563 C   0  0  0  0  0  0  0  0  0  0  0  0
  -20.7342  -27.9470  -11.3354 O   0  0  0  0  0  0  0  0  0  0  0  0
  -20.8691  -28.0421  -14.8619 C   0  0  1  0  0  0  0  0  0  0  0  0
  -20.4591  -23.5416  -16.8470 C   0  0  0  0  0  0  0  0  0  0  0  0
  -21.0287  -22.7893  -15.8465 C   0  0  0  0  0  0  0  0  0  0  0  0
  -21.3760  -24.8231  -14.6090 C   0  0  0  0  0  0  0  0  0  0  0  0
  -19.4863  -28.3245  -17.6792 C   0  0  2  0  0  0  0  0  0  0  0  0
  -19.9798  -30.5571  -18.1641 C   0  0  0  0  0  0  0  0  0  0  0  0
  -20.5708  -29.6773  -19.2445 C   0  0  0  0  0  0  0  0  0  0  0  0
  -22.2703  -28.2023  -14.5091 C   0  0  0  0  0  0  0  0  0  0  0  0
  -22.3740  -28.1948  -13.1385 C   0  0  0  0  0  0  0  0  0  0  0  0
  -19.9630  -27.0834  -16.9937 C   0  0  0  0  0  0  0  0  0  0  0  0
  -19.9089  -28.4104  -19.0448 N   0  0  0  0  0  4  0  0  0  0  0  0
  1  7  1  0
 23  1  1  0
  3  2  2  0
 22  2  1  0
  4  3  1  0
  5  4  2  0
 21  5  1  0
  6  9  1  0
 14  6  1  6
 23  6  2  0
  9  7  2  0
  7 15  1  0
  8 16  1  0
 17  8  2  0
  9 17  1  0
 18 10  1  0
 10 19  1  0
 11 12  1  0
 14 11  1  0
 12 13  2  0
 12 22  1  0
 14 21  1  0
 15 16  2  0
 18 23  1  1
 18 24  1  0
 19 20  1  0
 20 24  1  0
 21 22  2  0
M  CHG  1  24   1
M  END
$$$$
