
     RDKit          3D

 24 28  0  0  0  0  0  0  0  0999 V2000
  -22.6736  -28.1684  -14.2860 N   0  0  0  0  0  0  0  0  0  0  0  0
  -18.9678  -25.0225  -18.5917 C   0  0  0  0  0  0  0  0  0  0  0  0
  -19.7882  -23.9180  -18.5555 C   0  0  0  0  0  0  0  0  0  0  0  0
  -20.6103  -23.7180  -17.4528 C   0  0  0  0  0  0  0  0  0  0  0  0
  -20.6281  -24.5832  -16.4037 C   0  0  0  0  0  0  0  0  0  0  0  0
  -20.8327  -27.1852  -14.8796 C   0  0  0  0  0  0  0  0  0  0  0  0
  -22.7259  -26.9419  -13.7457 C   0  0  0  0  0  0  0  0  0  0  0  0
  -22.2831  -24.3337  -12.8758 C   0  0  0  0  0  0  0  0  0  0  0  0
  -21.5729  -26.2890  -14.1013 C   0  0  0  0  0  0  0  0  0  0  0  0
  -21.7461  -29.8193  -17.0376 C   0  0  0  0  0  0  0  0  0  0  0  0
  -18.7007  -27.6878  -16.0745 N   0  0  0  0  0  0  0  0  0  0  0  0
  -18.2576  -27.1871  -17.3150 C   0  0  0  0  0  0  0  0  0  0  0  0
  -17.4172  -27.6729  -18.1362 O   0  0  0  0  0  0  0  0  0  0  0  0
  -19.5502  -26.7861  -15.4547 C   0  0  1  0  0  0  0  0  0  0  0  0
  -23.6662  -26.3070  -12.9583 C   0  0  0  0  0  0  0  0  0  0  0  0
  -23.4417  -25.0241  -12.5342 C   0  0  0  0  0  0  0  0  0  0  0  0
  -21.3522  -24.9729  -13.6604 C   0  0  0  0  0  0  0  0  0  0  0  0
  -21.1843  -29.6168  -15.6531 C   0  0  2  0  0  0  0  0  0  0  0  0
  -20.8878  -31.0015  -17.5216 C   0  0  0  0  0  0  0  0  0  0  0  0
  -19.5590  -30.6879  -16.8826 C   0  0  0  0  0  0  0  0  0  0  0  0
  -19.7828  -25.7070  -16.4548 C   0  0  0  0  0  0  0  0  0  0  0  0
  -18.9632  -25.9325  -17.5285 C   0  0  0  0  0  0  0  0  0  0  0  0
  -21.5232  -28.3613  -14.9923 C   0  0  0  0  0  0  0  0  0  0  0  0
  -19.8809  -30.1384  -15.5624 N   0  0  0  0  0  4  0  0  0  0  0  0
  1  7  1  0
 23  1  1  0
  3  2  2  0
 22  2  1  0
  4  3  1  0
  5  4  2  0
 21  5  1  0
  6  9  1  0
 14  6  1  6
 23  6  2  0
  9  7  2  0
  7 15  1  0
  8 16  1  0
 17  8  2  0
  9 17  1  0
 10 18  1  1
 19 10  1  1
 11 12  1  0
 14 11  1  0
 12 13  2  0
 12 22  1  0
 14 21  1  0
 15 16  2  0
 18 23  1  6
 18 24  1  0
 20 19  1  1
 24 20  1  6
 21 22  2  0
M  CHG  1  24   1
M  END
$$$$
