
     RDKit          3D

 24 28  0  0  0  0  0  0  0  0999 V2000
  -18.2500  -28.6943  -17.1640 N   0  0  0  0  0  0  0  0  0  0  0  0
  -22.3028  -24.4175  -14.7704 C   0  0  0  0  0  0  0  0  0  0  0  0
  -21.5087  -23.2886  -14.7711 C   0  0  0  0  0  0  0  0  0  0  0  0
  -20.5021  -23.1552  -15.6979 C   0  0  0  0  0  0  0  0  0  0  0  0
  -20.2856  -24.1601  -16.6354 C   0  0  0  0  0  0  0  0  0  0  0  0
  -19.8353  -27.2208  -17.5902 C   0  0  0  0  0  0  0  0  0  0  0  0
  -17.7934  -27.9816  -18.1910 C   0  0  0  0  0  0  0  0  0  0  0  0
  -17.3680  -26.2323  -20.2467 C   0  0  0  0  0  0  0  0  0  0  0  0
  -18.7870  -27.0484  -18.4679 C   0  0  0  0  0  0  0  0  0  0  0  0
  -20.0874  -30.3920  -15.6151 C   0  0  0  0  0  0  0  0  0  0  0  0
  -22.1510  -27.3343  -16.9732 N   0  0  0  0  0  0  0  0  0  0  0  0
  -22.7542  -26.6688  -15.8993 C   0  0  0  0  0  0  0  0  0  0  0  0
  -23.7261  -27.1315  -15.2380 O   0  0  0  0  0  0  0  0  0  0  0  0
  -21.0897  -26.4844  -17.4949 C   0  0  1  0  0  0  0  0  0  0  0  0
  -16.6261  -28.0411  -18.9148 C   0  0  0  0  0  0  0  0  0  0  0  0
  -16.3915  -27.1704  -19.9533 C   0  0  0  0  0  0  0  0  0  0  0  0
  -18.5389  -26.1778  -19.5154 C   0  0  0  0  0  0  0  0  0  0  0  0
  -20.2404  -28.8839  -15.6374 C   0  0  2  0  0  0  0  0  0  0  0  0
  -20.3097  -30.6592  -14.1187 C   0  0  0  0  0  0  0  0  0  0  0  0
  -19.4980  -29.5311  -13.5194 C   0  0  0  0  0  0  0  0  0  0  0  0
  -21.0604  -25.2953  -16.6591 C   0  0  0  0  0  0  0  0  0  0  0  0
  -22.0591  -25.4024  -15.7208 C   0  0  0  0  0  0  0  0  0  0  0  0
  -19.4826  -28.2665  -16.7696 C   0  0  0  0  0  0  0  0  0  0  0  0
  -19.8270  -28.4008  -14.3542 N   0  0  0  0  0  4  0  0  0  0  0  0
  1  7  1  0
 23  1  1  0
  3  2  2  0
 22  2  1  0
  4  3  1  0
  5  4  2  0
 21  5  1  0
  6  9  1  0
 14  6  1  1
 23  6  2  0
  9  7  2  0
  7 15  1  0
  8 16  1  0
 17  8  2  0
  9 17  1  0
 18 10  1  0
 10 19  1  0
 11 12  1  0
 14 11  1  0
 12 13  2  0
 12 22  1  0
 14 21  1  0
 15 16  2  0
 18 23  1  6
 18 24  1  0
 19 20  1  0
 20 24  1  0
 21 22  2  0
M  CHG  1  24   1
M  END
$$$$
