
     RDKit          3D

 24 28  0  0  0  0  0  0  0  0999 V2000
  -21.7464  -29.0950  -13.3244 N   0  0  0  0  0  0  0  0  0  0  0  0
  -21.2234  -24.1029  -17.8963 C   0  0  0  0  0  0  0  0  0  0  0  0
  -21.3763  -22.9991  -17.0818 C   0  0  0  0  0  0  0  0  0  0  0  0
  -21.1616  -23.1069  -15.7282 C   0  0  0  0  0  0  0  0  0  0  0  0
  -20.7895  -24.3307  -15.1809 C   0  0  0  0  0  0  0  0  0  0  0  0
  -21.0512  -27.5227  -14.7066 C   0  0  0  0  0  0  0  0  0  0  0  0
  -22.6154  -28.0975  -13.1795 C   0  0  0  0  0  0  0  0  0  0  0  0
  -24.0634  -25.7826  -13.2853 C   0  0  0  0  0  0  0  0  0  0  0  0
  -22.1853  -27.0997  -14.0480 C   0  0  0  0  0  0  0  0  0  0  0  0
  -19.7906  -31.0461  -13.8762 C   0  0  0  0  0  0  0  0  0  0  0  0
  -20.2920  -27.5206  -16.9825 N   0  0  0  0  0  0  0  0  0  0  0  0
  -20.6447  -26.5941  -17.9710 C   0  0  0  0  0  0  0  0  0  0  0  0
  -20.7506  -26.8765  -19.1978 O   0  0  0  0  0  0  0  0  0  0  0  0
  -20.2488  -26.8250  -15.7037 C   0  0  1  0  0  0  0  0  0  0  0  0
  -23.7305  -27.9466  -12.3896 C   0  0  0  0  0  0  0  0  0  0  0  0
  -24.4737  -26.7900  -12.4272 C   0  0  0  0  0  0  0  0  0  0  0  0
  -22.9418  -25.9406  -14.0764 C   0  0  0  0  0  0  0  0  0  0  0  0
  -19.6741  -29.7220  -14.6053 C   0  0  2  0  0  0  0  0  0  0  0  0
  -19.0627  -31.9621  -14.8718 C   0  0  0  0  0  0  0  0  0  0  0  0
  -19.6325  -31.4496  -16.1769 C   0  0  0  0  0  0  0  0  0  0  0  0
  -20.6293  -25.4469  -15.9670 C   0  0  0  0  0  0  0  0  0  0  0  0
  -20.8509  -25.3103  -17.3166 C   0  0  0  0  0  0  0  0  0  0  0  0
  -20.7837  -28.7881  -14.2392 C   0  0  0  0  0  0  0  0  0  0  0  0
  -19.6260  -30.0165  -16.0060 N   0  0  0  0  0  4  0  0  0  0  0  0
  1  7  1  0
 23  1  1  0
  3  2  2  0
 22  2  1  0
  4  3  1  0
  5  4  2  0
 21  5  1  0
  6  9  1  0
 14  6  1  1
 23  6  2  0
  9  7  2  0
  7 15  1  0
  8 16  1  0
 17  8  2  0
  9 17  1  0
 18 10  1  0
 10 19  1  0
 11 12  1  0
 14 11  1  0
 12 13  2  0
 12 22  1  0
 14 21  1  0
 15 16  2  0
 18 23  1  6
 18 24  1  0
 19 20  1  0
 20 24  1  0
 21 22  2  0
M  CHG  1  24   1
M  END
$$$$
