
     RDKit          3D

 24 28  0  0  0  0  0  0  0  0999 V2000
  -20.7981  -29.3230  -13.7733 N   0  0  0  0  0  0  0  0  0  0  0  0
  -21.8079  -23.5917  -17.3001 C   0  0  0  0  0  0  0  0  0  0  0  0
  -21.5526  -22.6623  -16.3121 C   0  0  0  0  0  0  0  0  0  0  0  0
  -20.8406  -23.0245  -15.1933 C   0  0  0  0  0  0  0  0  0  0  0  0
  -20.3775  -24.3295  -15.0589 C   0  0  0  0  0  0  0  0  0  0  0  0
  -20.6710  -27.5538  -15.0847 C   0  0  0  0  0  0  0  0  0  0  0  0
  -21.6393  -28.4381  -13.2437 C   0  0  0  0  0  0  0  0  0  0  0  0
  -23.1912  -26.2818  -12.6045 C   0  0  0  0  0  0  0  0  0  0  0  0
  -21.5665  -27.3174  -14.0644 C   0  0  0  0  0  0  0  0  0  0  0  0
  -19.1588  -29.1431  -17.1362 C   0  0  0  0  0  0  0  0  0  0  0  0
  -20.8514  -27.1201  -17.4375 N   0  0  0  0  0  0  0  0  0  0  0  0
  -21.4888  -26.0233  -18.0296 C   0  0  0  0  0  0  0  0  0  0  0  0
  -22.0807  -26.0681  -19.1448 O   0  0  0  0  0  0  0  0  0  0  0  0
  -20.2666  -26.6793  -16.1787 C   0  0  1  0  0  0  0  0  0  0  0  0
  -22.4586  -28.4828  -12.1406 C   0  0  0  0  0  0  0  0  0  0  0  0
  -23.2479  -27.4090  -11.8007 C   0  0  0  0  0  0  0  0  0  0  0  0
  -22.3657  -26.2434  -13.7116 C   0  0  0  0  0  0  0  0  0  0  0  0
  -19.1951  -29.6024  -15.6919 C   0  0  2  0  0  0  0  0  0  0  0  0
  -17.7171  -29.5285  -17.5010 C   0  0  0  0  0  0  0  0  0  0  0  0
  -16.9913  -29.0704  -16.2545 C   0  0  0  0  0  0  0  0  0  0  0  0
  -20.6162  -25.2765  -16.0263 C   0  0  0  0  0  0  0  0  0  0  0  0
  -21.3309  -24.8869  -17.1339 C   0  0  0  0  0  0  0  0  0  0  0  0
  -20.1913  -28.8277  -14.8888 C   0  0  0  0  0  0  0  0  0  0  0  0
  -17.8601  -29.4979  -15.1842 N   0  0  0  0  0  4  0  0  0  0  0  0
  1  7  1  0
 23  1  1  0
  3  2  2  0
 22  2  1  0
  4  3  1  0
  5  4  2  0
 21  5  1  0
  6  9  1  0
 14  6  1  1
 23  6  2  0
  9  7  2  0
  7 15  1  0
  8 16  1  0
 17  8  2  0
  9 17  1  0
 18 10  1  0
 10 19  1  0
 11 12  1  0
 14 11  1  0
 12 13  2  0
 12 22  1  0
 14 21  1  0
 15 16  2  0
 18 23  1  1
 18 24  1  0
 19 20  1  0
 20 24  1  0
 21 22  2  0
M  CHG  1  24   1
M  END
$$$$
