
     RDKit          3D

 24 28  0  0  0  0  0  0  0  0999 V2000
  -21.7481  -27.0388  -13.5828 N   0  0  0  0  0  0  0  0  0  0  0  0
  -18.1874  -26.0921  -19.3121 C   0  0  0  0  0  0  0  0  0  0  0  0
  -17.4771  -24.9772  -18.9153 C   0  0  0  0  0  0  0  0  0  0  0  0
  -17.3633  -24.6725  -17.5796 C   0  0  0  0  0  0  0  0  0  0  0  0
  -17.9654  -25.4902  -16.6285 C   0  0  0  0  0  0  0  0  0  0  0  0
  -20.4229  -27.1601  -15.3421 C   0  0  0  0  0  0  0  0  0  0  0  0
  -22.0751  -25.9912  -14.3357 C   0  0  0  0  0  0  0  0  0  0  0  0
  -22.3274  -24.0473  -16.2394 C   0  0  0  0  0  0  0  0  0  0  0  0
  -21.2441  -26.0587  -15.4491 C   0  0  0  0  0  0  0  0  0  0  0  0
  -21.2651  -30.0014  -13.1633 C   0  0  0  0  0  0  0  0  0  0  0  0
  -19.9630  -28.5383  -17.2514 N   0  0  0  0  0  0  0  0  0  0  0  0
  -19.5742  -28.0910  -18.5197 C   0  0  0  0  0  0  0  0  0  0  0  0
  -19.8882  -28.6680  -19.5988 O   0  0  0  0  0  0  0  0  0  0  0  0
  -19.3946  -27.6369  -16.2587 C   0  0  1  0  0  0  0  0  0  0  0  0
  -23.0015  -24.9880  -14.1762 C   0  0  0  0  0  0  0  0  0  0  0  0
  -23.1452  -23.9998  -15.1220 C   0  0  0  0  0  0  0  0  0  0  0  0
  -21.3984  -25.0583  -16.3936 C   0  0  0  0  0  0  0  0  0  0  0  0
  -20.1820  -29.0069  -13.5325 C   0  0  2  0  0  0  0  0  0  0  0  0
  -20.4607  -31.3083  -13.2346 C   0  0  0  0  0  0  0  0  0  0  0  0
  -19.6686  -31.0692  -14.5018 C   0  0  0  0  0  0  0  0  0  0  0  0
  -18.6788  -26.6069  -16.9938 C   0  0  0  0  0  0  0  0  0  0  0  0
  -18.7766  -26.8873  -18.3358 C   0  0  0  0  0  0  0  0  0  0  0  0
  -20.7522  -27.7723  -14.1556 C   0  0  0  0  0  0  0  0  0  0  0  0
  -19.2565  -29.6910  -14.3848 N   0  0  0  0  0  4  0  0  0  0  0  0
  1  7  1  0
 23  1  1  0
  3  2  2  0
 22  2  1  0
  4  3  1  0
  5  4  2  0
 21  5  1  0
  6  9  1  0
 14  6  1  6
 23  6  2  0
  9  7  2  0
  7 15  1  0
  8 16  1  0
 17  8  2  0
  9 17  1  0
 18 10  1  0
 10 19  1  0
 11 12  1  0
 14 11  1  0
 12 13  2  0
 12 22  1  0
 14 21  1  0
 15 16  2  0
 18 23  1  6
 18 24  1  0
 19 20  1  0
 20 24  1  0
 21 22  2  0
M  CHG  1  24   1
M  END
$$$$
