
     RDKit          3D

 24 28  0  0  0  0  0  0  0  0999 V2000
  -21.0473  -26.8774  -14.9388 N   0  0  0  0  0  0  0  0  0  0  0  0
  -20.4410  -29.2813  -20.7068 C   0  0  0  0  0  0  0  0  0  0  0  0
  -21.6391  -28.8555  -21.2437 C   0  0  0  0  0  0  0  0  0  0  0  0
  -22.2226  -27.6955  -20.7924 C   0  0  0  0  0  0  0  0  0  0  0  0
  -21.6030  -26.9513  -19.7935 C   0  0  0  0  0  0  0  0  0  0  0  0
  -20.1554  -26.5367  -16.9273 C   0  0  0  0  0  0  0  0  0  0  0  0
  -21.0809  -25.5584  -15.1121 C   0  0  0  0  0  0  0  0  0  0  0  0
  -20.8985  -22.9755  -15.9854 C   0  0  0  0  0  0  0  0  0  0  0  0
  -20.5200  -25.3328  -16.3648 C   0  0  0  0  0  0  0  0  0  0  0  0
  -20.1405  -29.6133  -14.7273 C   0  0  0  0  0  0  0  0  0  0  0  0
  -18.4227  -27.7329  -18.0777 N   0  0  0  0  0  0  0  0  0  0  0  0
  -18.6060  -28.7717  -18.9981 C   0  0  0  0  0  0  0  0  0  0  0  0
  -17.8034  -29.7366  -19.1428 O   0  0  0  0  0  0  0  0  0  0  0  0
  -19.5330  -26.8010  -18.2187 C   0  0  1  0  0  0  0  0  0  0  0  0
  -21.5360  -24.5306  -14.3205 C   0  0  0  0  0  0  0  0  0  0  0  0
  -21.4539  -23.2235  -14.7404 C   0  0  0  0  0  0  0  0  0  0  0  0
  -20.4430  -24.0130  -16.7759 C   0  0  0  0  0  0  0  0  0  0  0  0
  -20.3275  -28.9912  -16.0972 C   0  0  2  0  0  0  0  0  0  0  0  0
  -20.6809  -31.0251  -15.0010 C   0  0  0  0  0  0  0  0  0  0  0  0
  -21.9066  -30.6905  -15.8233 C   0  0  0  0  0  0  0  0  0  0  0  0
  -20.4096  -27.3501  -19.2402 C   0  0  0  0  0  0  0  0  0  0  0  0
  -19.8491  -28.5139  -19.7101 C   0  0  0  0  0  0  0  0  0  0  0  0
  -20.4947  -27.5071  -16.0139 C   0  0  0  0  0  0  0  0  0  0  0  0
  -21.4427  -29.6494  -16.7087 N   0  0  0  0  0  4  0  0  0  0  0  0
  1  7  1  0
 23  1  1  0
  3  2  2  0
 22  2  1  0
  4  3  1  0
  5  4  2  0
 21  5  1  0
  6  9  1  0
 14  6  1  1
 23  6  2  0
  9  7  2  0
  7 15  1  0
  8 16  1  0
 17  8  2  0
  9 17  1  0
 18 10  1  0
 10 19  1  0
 11 12  1  0
 14 11  1  0
 12 13  2  0
 12 22  1  0
 14 21  1  0
 15 16  2  0
 18 23  1  1
 18 24  1  0
 19 20  1  0
 20 24  1  0
 21 22  2  0
M  CHG  1  24   1
M  END
$$$$
