
     RDKit          3D

 24 28  0  0  0  0  0  0  0  0999 V2000
  -10.0213  -29.8224   -5.0465 N   0  0  0  0  0  0  0  0  0  0  0  0
   -8.4670  -29.7352  -11.1804 C   0  0  0  0  0  0  0  0  0  0  0  0
   -8.4949  -31.1112  -11.1708 C   0  0  0  0  0  0  0  0  0  0  0  0
   -9.2413  -31.7689  -10.2002 C   0  0  0  0  0  0  0  0  0  0  0  0
   -9.9486  -31.0918   -9.2565 C   0  0  0  0  0  0  0  0  0  0  0  0
  -10.5601  -29.1373   -7.0335 C   0  0  0  0  0  0  0  0  0  0  0  0
  -11.3617  -29.8438   -5.0875 C   0  0  0  0  0  0  0  0  0  0  0  0
  -14.0646  -29.6682   -5.7350 C   0  0  0  0  0  0  0  0  0  0  0  0
  -11.7395  -29.4144   -6.3345 C   0  0  0  0  0  0  0  0  0  0  0  0
   -7.1803  -29.2147   -5.2192 C   0  0  0  0  0  0  0  0  0  0  0  0
  -10.1207  -27.4527   -8.8210 N   0  0  0  0  0  0  0  0  0  0  0  0
   -9.2986  -27.5824   -9.9583 C   0  0  0  0  0  0  0  0  0  0  0  0
   -8.7362  -26.6862  -10.6633 O   0  0  0  0  0  0  0  0  0  0  0  0
  -10.6082  -28.6866   -8.4226 C   0  0  1  0  0  0  0  0  0  0  0  0
  -12.3197  -30.1894   -4.1547 C   0  0  0  0  0  0  0  0  0  0  0  0
  -13.6472  -30.1005   -4.4802 C   0  0  0  0  0  0  0  0  0  0  0  0
  -13.1044  -29.3264   -6.6581 C   0  0  0  0  0  0  0  0  0  0  0  0
   -8.0534  -29.2330   -6.4484 C   0  0  2  0  0  0  0  0  0  0  0  0
   -5.7938  -29.4242   -5.8534 C   0  0  0  0  0  0  0  0  0  0  0  0
   -6.1215  -30.3642   -6.9854 C   0  0  0  0  0  0  0  0  0  0  0  0
   -9.9112  -29.6852   -9.2802 C   0  0  0  0  0  0  0  0  0  0  0  0
   -9.1832  -29.0087  -10.2224 C   0  0  0  0  0  0  0  0  0  0  0  0
   -9.4861  -29.3920   -6.2246 C   0  0  0  0  0  0  0  0  0  0  0  0
   -7.4184  -29.9166   -7.5013 N   0  0  0  0  0  4  0  0  0  0  0  0
  1  7  1  0
 23  1  1  0
  3  2  2  0
 22  2  1  0
  4  3  1  0
  5  4  2  0
 21  5  1  0
  6  9  1  0
 14  6  1  1
 23  6  2  0
  9  7  2  0
  7 15  1  0
  8 16  1  0
 17  8  2  0
  9 17  1  0
 10 18  1  1
 19 10  1  1
 11 12  1  0
 14 11  1  0
 12 13  2  0
 12 22  1  0
 14 21  1  0
 15 16  2  0
 18 23  1  1
 18 24  1  0
 20 19  1  1
 24 20  1  6
 21 22  2  0
M  CHG  1  24   1
M  END
$$$$
