
     RDKit          3D

 24 28  0  0  0  0  0  0  0  0999 V2000
   -7.8483  -29.4028   -6.3089 N   0  0  0  0  0  0  0  0  0  0  0  0
  -14.3943  -29.6025   -4.9349 C   0  0  0  0  0  0  0  0  0  0  0  0
  -14.2614  -28.4737   -4.1587 C   0  0  0  0  0  0  0  0  0  0  0  0
  -13.1131  -27.6995   -4.2765 C   0  0  0  0  0  0  0  0  0  0  0  0
  -12.1133  -28.0238   -5.1394 C   0  0  0  0  0  0  0  0  0  0  0  0
   -9.9907  -29.6673   -6.5284 C   0  0  0  0  0  0  0  0  0  0  0  0
   -8.2701  -29.9306   -5.1503 C   0  0  0  0  0  0  0  0  0  0  0  0
   -9.6950  -30.9925   -3.0061 C   0  0  0  0  0  0  0  0  0  0  0  0
   -9.6261  -30.1117   -5.2531 C   0  0  0  0  0  0  0  0  0  0  0  0
   -7.3055  -28.2647   -8.9110 C   0  0  0  0  0  0  0  0  0  0  0  0
  -11.9672  -30.9550   -7.3413 N   0  0  0  0  0  0  0  0  0  0  0  0
  -13.2252  -31.1033   -6.7238 C   0  0  0  0  0  0  0  0  0  0  0  0
  -14.0991  -32.0161   -6.8646 O   0  0  0  0  0  0  0  0  0  0  0  0
  -11.3784  -29.7552   -6.9772 C   0  0  1  0  0  0  0  0  0  0  0  0
   -7.6120  -30.2749   -3.9860 C   0  0  0  0  0  0  0  0  0  0  0  0
   -8.3194  -30.7966   -2.9355 C   0  0  0  0  0  0  0  0  0  0  0  0
  -10.3425  -30.6474   -4.1691 C   0  0  0  0  0  0  0  0  0  0  0  0
   -8.7123  -28.6292   -8.5090 C   0  0  2  0  0  0  0  0  0  0  0  0
   -7.4880  -28.0581  -10.4251 C   0  0  0  0  0  0  0  0  0  0  0  0
   -8.5115  -29.1160  -10.7503 C   0  0  0  0  0  0  0  0  0  0  0  0
  -12.2645  -29.1801   -5.9270 C   0  0  0  0  0  0  0  0  0  0  0  0
  -13.3831  -29.9644   -5.8320 C   0  0  0  0  0  0  0  0  0  0  0  0
   -8.8764  -29.2226   -7.1866 C   0  0  0  0  0  0  0  0  0  0  0  0
   -9.4304  -29.1339   -9.6085 N   0  0  0  0  0  4  0  0  0  0  0  0
  1  7  1  0
 23  1  1  0
  3  2  2  0
 22  2  1  0
  4  3  1  0
  5  4  2  0
 21  5  1  0
  6  9  1  0
 14  6  1  1
 23  6  2  0
  9  7  2  0
  7 15  1  0
  8 16  1  0
 17  8  2  0
  9 17  1  0
 10 18  1  1
 19 10  1  1
 11 12  1  0
 14 11  1  0
 12 13  2  0
 12 22  1  0
 14 21  1  0
 15 16  2  0
 18 23  1  1
 18 24  1  0
 20 19  1  1
 24 20  1  6
 21 22  2  0
M  CHG  1  24   1
M  END
$$$$
