
     RDKit          3D

 24 28  0  0  0  0  0  0  0  0999 V2000
  -21.5182  -26.8582  -15.2032 N   0  0  0  0  0  0  0  0  0  0  0  0
  -18.9301  -28.8630  -20.5316 C   0  0  0  0  0  0  0  0  0  0  0  0
  -19.9276  -28.4661  -21.3990 C   0  0  0  0  0  0  0  0  0  0  0  0
  -20.6994  -27.3673  -21.1046 C   0  0  0  0  0  0  0  0  0  0  0  0
  -20.4730  -26.6559  -19.9306 C   0  0  0  0  0  0  0  0  0  0  0  0
  -20.0203  -26.3467  -16.7397 C   0  0  0  0  0  0  0  0  0  0  0  0
  -21.4826  -25.5280  -15.2229 C   0  0  0  0  0  0  0  0  0  0  0  0
  -21.0031  -22.8773  -15.6820 C   0  0  0  0  0  0  0  0  0  0  0  0
  -20.5398  -25.1948  -16.1899 C   0  0  0  0  0  0  0  0  0  0  0  0
  -20.4861  -29.6141  -14.9843 C   0  0  0  0  0  0  0  0  0  0  0  0
  -17.9392  -27.3801  -17.3374 N   0  0  0  0  0  0  0  0  0  0  0  0
  -17.7566  -28.3680  -18.3125 C   0  0  0  0  0  0  0  0  0  0  0  0
  -16.8856  -29.2802  -18.2389 O   0  0  0  0  0  0  0  0  0  0  0  0
  -19.0107  -26.4987  -17.7802 C   0  0  1  0  0  0  0  0  0  0  0  0
  -22.1640  -24.5716  -14.5081 C   0  0  0  0  0  0  0  0  0  0  0  0
  -21.9383  -23.2320  -14.7231 C   0  0  0  0  0  0  0  0  0  0  0  0
  -20.3217  -23.8434  -16.3969 C   0  0  0  0  0  0  0  0  0  0  0  0
  -20.4748  -28.8658  -16.3028 C   0  0  2  0  0  0  0  0  0  0  0  0
  -20.9857  -30.9860  -15.4621 C   0  0  0  0  0  0  0  0  0  0  0  0
  -22.0813  -30.5579  -16.4144 C   0  0  0  0  0  0  0  0  0  0  0  0
  -19.4869  -27.0272  -19.0479 C   0  0  0  0  0  0  0  0  0  0  0  0
  -18.7309  -28.1298  -19.3674 C   0  0  0  0  0  0  0  0  0  0  0  0
  -20.6483  -27.3932  -16.1059 C   0  0  0  0  0  0  0  0  0  0  0  0
  -21.4935  -29.4473  -17.1244 N   0  0  0  0  0  4  0  0  0  0  0  0
  1  7  1  0
 23  1  1  0
  3  2  2  0
 22  2  1  0
  4  3  1  0
  5  4  2  0
 21  5  1  0
  6  9  1  0
 14  6  1  1
 23  6  2  0
  9  7  2  0
  7 15  1  0
  8 16  1  0
 17  8  2  0
  9 17  1  0
 18 10  1  0
 10 19  1  0
 11 12  1  0
 14 11  1  0
 12 13  2  0
 12 22  1  0
 14 21  1  0
 15 16  2  0
 18 23  1  1
 18 24  1  0
 19 20  1  0
 20 24  1  0
 21 22  2  0
M  CHG  1  24   1
M  END
$$$$
