
     RDKit          3D

 24 28  0  0  0  0  0  0  0  0999 V2000
  -19.4681  -26.0476  -17.2202 N   0  0  0  0  0  0  0  0  0  0  0  0
  -21.9752  -29.2796  -12.2740 C   0  0  0  0  0  0  0  0  0  0  0  0
  -21.4215  -28.3843  -11.3873 C   0  0  0  0  0  0  0  0  0  0  0  0
  -21.0922  -27.1076  -11.8273 C   0  0  0  0  0  0  0  0  0  0  0  0
  -21.3021  -26.7141  -13.1119 C   0  0  0  0  0  0  0  0  0  0  0  0
  -21.2146  -26.7371  -16.1331 C   0  0  0  0  0  0  0  0  0  0  0  0
  -20.1213  -24.9393  -16.8412 C   0  0  0  0  0  0  0  0  0  0  0  0
  -21.8784  -23.0341  -15.8221 C   0  0  0  0  0  0  0  0  0  0  0  0
  -21.2363  -25.3386  -16.1487 C   0  0  0  0  0  0  0  0  0  0  0  0
  -18.7509  -28.6700  -18.3202 C   0  0  0  0  0  0  0  0  0  0  0  0
  -22.6637  -28.7479  -15.8453 N   0  0  0  0  0  0  0  0  0  0  0  0
  -22.7147  -29.6367  -14.7529 C   0  0  0  0  0  0  0  0  0  0  0  0
  -23.1125  -30.8433  -14.7025 O   0  0  0  0  0  0  0  0  0  0  0  0
  -22.2565  -27.4885  -15.4367 C   0  0  1  0  0  0  0  0  0  0  0  0
  -19.8697  -23.5949  -17.0323 C   0  0  0  0  0  0  0  0  0  0  0  0
  -20.7383  -22.6635  -16.5282 C   0  0  0  0  0  0  0  0  0  0  0  0
  -22.1213  -24.3747  -15.6360 C   0  0  0  0  0  0  0  0  0  0  0  0
  -19.6411  -28.5263  -17.1117 C   0  0  2  0  0  0  0  0  0  0  0  0
  -18.1805  -30.0801  -18.0860 C   0  0  0  0  0  0  0  0  0  0  0  0
  -18.0498  -30.1043  -16.5843 C   0  0  0  0  0  0  0  0  0  0  0  0
  -21.8702  -27.6403  -14.0062 C   0  0  0  0  0  0  0  0  0  0  0  0
  -22.2032  -28.9060  -13.6033 C   0  0  0  0  0  0  0  0  0  0  0  0
  -20.1077  -27.1785  -16.8058 C   0  0  0  0  0  0  0  0  0  0  0  0
  -19.2226  -29.3850  -16.0789 N   0  0  0  0  0  4  0  0  0  0  0  0
  1  7  1  0
 23  1  1  0
  3  2  2  0
 22  2  1  0
  4  3  1  0
  5  4  2  0
 21  5  1  0
  6  9  1  0
 14  6  1  6
 23  6  2  0
  9  7  2  0
  7 15  1  0
  8 16  1  0
 17  8  2  0
  9 17  1  0
 10 18  1  1
 19 10  1  1
 11 12  1  0
 14 11  1  0
 12 13  2  0
 12 22  1  0
 14 21  1  0
 15 16  2  0
 18 23  1  1
 18 24  1  0
 20 19  1  1
 24 20  1  6
 21 22  2  0
M  CHG  1  24   1
M  END
$$$$
