
     RDKit          3D

 24 28  0  0  0  0  0  0  0  0999 V2000
  -22.7627  -29.2723  -16.8919 N   0  0  0  0  0  0  0  0  0  0  0  0
  -20.0592  -23.5182  -15.7491 C   0  0  0  0  0  0  0  0  0  0  0  0
  -21.0520  -22.8759  -16.4534 C   0  0  0  0  0  0  0  0  0  0  0  0
  -22.2784  -23.5063  -16.6274 C   0  0  0  0  0  0  0  0  0  0  0  0
  -22.5289  -24.7430  -16.1202 C   0  0  0  0  0  0  0  0  0  0  0  0
  -22.1827  -27.6868  -15.5290 C   0  0  0  0  0  0  0  0  0  0  0  0
  -23.9068  -28.6897  -16.5041 C   0  0  0  0  0  0  0  0  0  0  0  0
  -25.9132  -27.1354  -15.3577 C   0  0  0  0  0  0  0  0  0  0  0  0
  -23.5773  -27.6785  -15.6374 C   0  0  0  0  0  0  0  0  0  0  0  0
  -20.0285  -30.5940  -16.2289 C   0  0  0  0  0  0  0  0  0  0  0  0
  -20.1948  -26.8752  -14.2580 N   0  0  0  0  0  0  0  0  0  0  0  0
  -19.4278  -25.7153  -14.4867 C   0  0  0  0  0  0  0  0  0  0  0  0
  -18.2283  -25.4538  -14.1561 O   0  0  0  0  0  0  0  0  0  0  0  0
  -21.4962  -26.6996  -14.6988 C   0  0  1  0  0  0  0  0  0  0  0  0
  -25.2311  -28.9365  -16.8085 C   0  0  0  0  0  0  0  0  0  0  0  0
  -26.2125  -28.1679  -16.2409 C   0  0  0  0  0  0  0  0  0  0  0  0
  -24.5922  -26.8961  -15.0602 C   0  0  0  0  0  0  0  0  0  0  0  0
  -20.3061  -29.1422  -16.5265 C   0  0  2  0  0  0  0  0  0  0  0  0
  -18.6635  -30.7686  -16.9181 C   0  0  0  0  0  0  0  0  0  0  0  0
  -18.8217  -29.8788  -18.1247 C   0  0  0  0  0  0  0  0  0  0  0  0
  -21.5043  -25.3863  -15.4014 C   0  0  0  0  0  0  0  0  0  0  0  0
  -20.2847  -24.7920  -15.2150 C   0  0  0  0  0  0  0  0  0  0  0  0
  -21.6754  -28.6864  -16.3140 C   0  0  0  0  0  0  0  0  0  0  0  0
  -19.5829  -28.7173  -17.6559 N   0  0  0  0  0  4  0  0  0  0  0  0
  1  7  1  0
 23  1  1  0
  3  2  2  0
 22  2  1  0
  4  3  1  0
  5  4  2  0
 21  5  1  0
  6  9  1  0
 14  6  1  6
 23  6  2  0
  9  7  2  0
  7 15  1  0
  8 16  1  0
 17  8  2  0
  9 17  1  0
 10 18  1  1
 19 10  1  1
 11 12  1  0
 14 11  1  0
 12 13  2  0
 12 22  1  0
 14 21  1  0
 15 16  2  0
 18 23  1  6
 18 24  1  0
 20 19  1  1
 24 20  1  6
 21 22  2  0
M  CHG  1  24   1
M  END
$$$$
