
     RDKit          3D

 24 28  0  0  0  0  0  0  0  0999 V2000
  -19.5271  -28.9007  -14.1824 N   0  0  0  0  0  0  0  0  0  0  0  0
  -22.4296  -23.5607  -17.2459 C   0  0  0  0  0  0  0  0  0  0  0  0
  -21.7275  -22.5750  -16.5822 C   0  0  0  0  0  0  0  0  0  0  0  0
  -20.5558  -22.8827  -15.9325 C   0  0  0  0  0  0  0  0  0  0  0  0
  -20.0788  -24.1896  -15.9454 C   0  0  0  0  0  0  0  0  0  0  0  0
  -20.3282  -27.3974  -15.5838 C   0  0  0  0  0  0  0  0  0  0  0  0
  -20.4724  -28.2596  -13.4994 C   0  0  0  0  0  0  0  0  0  0  0  0
  -22.4758  -26.6359  -12.5956 C   0  0  0  0  0  0  0  0  0  0  0  0
  -20.9845  -27.3082  -14.3754 C   0  0  0  0  0  0  0  0  0  0  0  0
  -17.5775  -30.0531  -15.8575 C   0  0  0  0  0  0  0  0  0  0  0  0
  -21.6432  -27.1186  -17.5711 N   0  0  0  0  0  0  0  0  0  0  0  0
  -22.4957  -26.0449  -17.8547 C   0  0  0  0  0  0  0  0  0  0  0  0
  -23.5586  -26.1466  -18.5299 O   0  0  0  0  0  0  0  0  0  0  0  0
  -20.5182  -26.6122  -16.7972 C   0  0  1  0  0  0  0  0  0  0  0  0
  -20.9431  -28.3973  -12.2151 C   0  0  0  0  0  0  0  0  0  0  0  0
  -21.9507  -27.5908  -11.7398 C   0  0  0  0  0  0  0  0  0  0  0  0
  -21.9982  -26.5027  -13.8851 C   0  0  0  0  0  0  0  0  0  0  0  0
  -18.4235  -28.9394  -16.4427 C   0  0  2  0  0  0  0  0  0  0  0  0
  -17.2271  -30.8221  -17.1404 C   0  0  0  0  0  0  0  0  0  0  0  0
  -18.5688  -30.8052  -17.8406 C   0  0  0  0  0  0  0  0  0  0  0  0
  -20.7562  -25.1920  -16.5981 C   0  0  0  0  0  0  0  0  0  0  0  0
  -21.9249  -24.8560  -17.2388 C   0  0  0  0  0  0  0  0  0  0  0  0
  -19.4076  -28.4099  -15.4483 C   0  0  0  0  0  0  0  0  0  0  0  0
  -19.0428  -29.4591  -17.6248 N   0  0  0  0  0  4  0  0  0  0  0  0
  1  7  1  0
 23  1  1  0
  3  2  2  0
 22  2  1  0
  4  3  1  0
  5  4  2  0
 21  5  1  0
  6  9  1  0
 14  6  1  1
 23  6  2  0
  9  7  2  0
  7 15  1  0
  8 16  1  0
 17  8  2  0
  9 17  1  0
 18 10  1  0
 10 19  1  0
 11 12  1  0
 14 11  1  0
 12 13  2  0
 12 22  1  0
 14 21  1  0
 15 16  2  0
 18 23  1  1
 18 24  1  0
 19 20  1  0
 20 24  1  0
 21 22  2  0
M  CHG  1  24   1
M  END
$$$$
