
     RDKit          3D

 24 28  0  0  0  0  0  0  0  0999 V2000
  -21.4212  -28.0380  -14.9209 N   0  0  0  0  0  0  0  0  0  0  0  0
  -18.2276  -26.0727  -19.9705 C   0  0  0  0  0  0  0  0  0  0  0  0
  -19.0664  -26.8765  -20.7085 C   0  0  0  0  0  0  0  0  0  0  0  0
  -20.3008  -27.2363  -20.1808 C   0  0  0  0  0  0  0  0  0  0  0  0
  -20.7074  -26.8160  -18.9530 C   0  0  0  0  0  0  0  0  0  0  0  0
  -20.6607  -26.3008  -15.9751 C   0  0  0  0  0  0  0  0  0  0  0  0
  -21.9715  -26.9754  -14.3152 C   0  0  0  0  0  0  0  0  0  0  0  0
  -22.7818  -24.4526  -13.4582 C   0  0  0  0  0  0  0  0  0  0  0  0
  -21.5106  -25.8544  -14.9578 C   0  0  0  0  0  0  0  0  0  0  0  0
  -18.6379  -28.0696  -17.4743 C   0  0  0  0  0  0  0  0  0  0  0  0
  -18.8089  -24.7464  -16.5920 N   0  0  0  0  0  0  0  0  0  0  0  0
  -17.9352  -24.8254  -17.6950 C   0  0  0  0  0  0  0  0  0  0  0  0
  -16.7756  -24.3285  -17.8526 O   0  0  0  0  0  0  0  0  0  0  0  0
  -20.0224  -25.3486  -16.8812 C   0  0  1  0  0  0  0  0  0  0  0  0
  -22.8365  -26.8538  -13.2455 C   0  0  0  0  0  0  0  0  0  0  0  0
  -23.2307  -25.6097  -12.8296 C   0  0  0  0  0  0  0  0  0  0  0  0
  -21.9210  -24.5826  -14.5227 C   0  0  0  0  0  0  0  0  0  0  0  0
  -19.8462  -28.6161  -16.7567 C   0  0  2  0  0  0  0  0  0  0  0  0
  -17.9241  -29.3764  -17.8630 C   0  0  0  0  0  0  0  0  0  0  0  0
  -18.2241  -30.2476  -16.6698 C   0  0  0  0  0  0  0  0  0  0  0  0
  -19.8392  -25.9937  -18.2112 C   0  0  0  0  0  0  0  0  0  0  0  0
  -18.6158  -25.6239  -18.7031 C   0  0  0  0  0  0  0  0  0  0  0  0
  -20.6052  -27.6679  -15.9489 C   0  0  0  0  0  0  0  0  0  0  0  0
  -19.5978  -29.9163  -16.2805 N   0  0  0  0  0  4  0  0  0  0  0  0
  1  7  1  0
 23  1  1  0
  3  2  2  0
 22  2  1  0
  4  3  1  0
  5  4  2  0
 21  5  1  0
  6  9  1  0
 14  6  1  1
 23  6  2  0
  9  7  2  0
  7 15  1  0
  8 16  1  0
 17  8  2  0
  9 17  1  0
 10 18  1  1
 19 10  1  1
 11 12  1  0
 14 11  1  0
 12 13  2  0
 12 22  1  0
 14 21  1  0
 15 16  2  0
 18 23  1  1
 18 24  1  0
 20 19  1  1
 24 20  1  6
 21 22  2  0
M  CHG  1  24   1
M  END
$$$$
