
     RDKit          3D

 24 28  0  0  0  0  0  0  0  0999 V2000
  -20.6175  -26.4521  -13.8796 N   0  0  0  0  0  0  0  0  0  0  0  0
  -24.9159  -26.5825  -18.8201 C   0  0  0  0  0  0  0  0  0  0  0  0
  -25.2964  -25.2785  -18.5980 C   0  0  0  0  0  0  0  0  0  0  0  0
  -24.4437  -24.4315  -17.8998 C   0  0  0  0  0  0  0  0  0  0  0  0
  -23.2399  -24.8531  -17.4284 C   0  0  0  0  0  0  0  0  0  0  0  0
  -21.2018  -26.5405  -15.9673 C   0  0  0  0  0  0  0  0  0  0  0  0
  -20.7540  -25.1773  -14.2731 C   0  0  0  0  0  0  0  0  0  0  0  0
  -21.1647  -22.7807  -15.6310 C   0  0  0  0  0  0  0  0  0  0  0  0
  -21.1240  -25.1946  -15.5941 C   0  0  0  0  0  0  0  0  0  0  0  0
  -19.5373  -29.4111  -15.3385 C   0  0  0  0  0  0  0  0  0  0  0  0
  -21.8294  -28.2298  -17.6930 N   0  0  0  0  0  0  0  0  0  0  0  0
  -23.0505  -28.3573  -18.3848 C   0  0  0  0  0  0  0  0  0  0  0  0
  -23.5629  -29.3732  -18.9522 O   0  0  0  0  0  0  0  0  0  0  0  0
  -21.6102  -26.9140  -17.3196 C   0  0  1  0  0  0  0  0  0  0  0  0
  -20.5862  -23.9737  -13.6170 C   0  0  0  0  0  0  0  0  0  0  0  0
  -20.7899  -22.7990  -14.2913 C   0  0  0  0  0  0  0  0  0  0  0  0
  -21.3301  -23.9834  -16.2767 C   0  0  0  0  0  0  0  0  0  0  0  0
  -20.7741  -28.7738  -14.7574 C   0  0  2  0  0  0  0  0  0  0  0  0
  -19.5981  -30.8005  -14.6795 C   0  0  0  0  0  0  0  0  0  0  0  0
  -20.1557  -30.4628  -13.3202 C   0  0  0  0  0  0  0  0  0  0  0  0
  -22.8645  -26.1886  -17.6645 C   0  0  0  0  0  0  0  0  0  0  0  0
  -23.6837  -27.0478  -18.3472 C   0  0  0  0  0  0  0  0  0  0  0  0
  -20.8828  -27.3255  -14.8927 C   0  0  0  0  0  0  0  0  0  0  0  0
  -21.1425  -29.4049  -13.5552 N   0  0  0  0  0  4  0  0  0  0  0  0
  1  7  1  0
 23  1  1  0
  3  2  2  0
 22  2  1  0
  4  3  1  0
  5  4  2  0
 21  5  1  0
  6  9  1  0
 14  6  1  1
 23  6  2  0
  9  7  2  0
  7 15  1  0
  8 16  1  0
 17  8  2  0
  9 17  1  0
 10 18  1  1
 19 10  1  1
 11 12  1  0
 14 11  1  0
 12 13  2  0
 12 22  1  0
 14 21  1  0
 15 16  2  0
 18 23  1  1
 18 24  1  0
 20 19  1  1
 24 20  1  6
 21 22  2  0
M  CHG  1  24   1
M  END
$$$$
