
     RDKit          3D

 24 28  0  0  0  0  0  0  0  0999 V2000
  -17.8323  -28.6049  -17.5227 N   0  0  0  0  0  0  0  0  0  0  0  0
  -21.5596  -24.1570  -14.3442 C   0  0  0  0  0  0  0  0  0  0  0  0
  -21.3270  -23.0032  -15.0650 C   0  0  0  0  0  0  0  0  0  0  0  0
  -20.9217  -23.0803  -16.3764 C   0  0  0  0  0  0  0  0  0  0  0  0
  -20.7467  -24.3236  -16.9757 C   0  0  0  0  0  0  0  0  0  0  0  0
  -19.6083  -27.3492  -17.1551 C   0  0  0  0  0  0  0  0  0  0  0  0
  -17.6520  -27.5215  -18.2742 C   0  0  0  0  0  0  0  0  0  0  0  0
  -17.8003  -25.1321  -19.5917 C   0  0  0  0  0  0  0  0  0  0  0  0
  -18.7679  -26.7221  -18.0492 C   0  0  0  0  0  0  0  0  0  0  0  0
  -18.7963  -30.9456  -16.2044 C   0  0  0  0  0  0  0  0  0  0  0  0
  -21.2351  -27.6398  -15.4158 N   0  0  0  0  0  0  0  0  0  0  0  0
  -21.5469  -26.7147  -14.4123 C   0  0  0  0  0  0  0  0  0  0  0  0
  -21.9079  -27.0345  -13.2446 O   0  0  0  0  0  0  0  0  0  0  0  0
  -20.8888  -26.9009  -16.6220 C   0  0  1  0  0  0  0  0  0  0  0  0
  -16.6431  -27.1425  -19.1277 C   0  0  0  0  0  0  0  0  0  0  0  0
  -16.6974  -25.9444  -19.8008 C   0  0  0  0  0  0  0  0  0  0  0  0
  -18.8108  -25.5188  -18.7326 C   0  0  0  0  0  0  0  0  0  0  0  0
  -19.4683  -29.6204  -15.9038 C   0  0  2  0  0  0  0  0  0  0  0  0
  -18.8722  -31.6022  -14.8177 C   0  0  0  0  0  0  0  0  0  0  0  0
  -18.4918  -30.4282  -13.9416 C   0  0  0  0  0  0  0  0  0  0  0  0
  -20.9710  -25.4896  -16.2831 C   0  0  0  0  0  0  0  0  0  0  0  0
  -21.3749  -25.3828  -14.9736 C   0  0  0  0  0  0  0  0  0  0  0  0
  -19.0041  -28.5409  -16.8295 C   0  0  0  0  0  0  0  0  0  0  0  0
  -19.2174  -29.3253  -14.5251 N   0  0  0  0  0  4  0  0  0  0  0  0
  1  7  1  0
 23  1  1  0
  3  2  2  0
 22  2  1  0
  4  3  1  0
  5  4  2  0
 21  5  1  0
  6  9  1  0
 14  6  1  1
 23  6  2  0
  9  7  2  0
  7 15  1  0
  8 16  1  0
 17  8  2  0
  9 17  1  0
 18 10  1  0
 10 19  1  0
 11 12  1  0
 14 11  1  0
 12 13  2  0
 12 22  1  0
 14 21  1  0
 15 16  2  0
 18 23  1  6
 18 24  1  0
 19 20  1  0
 20 24  1  0
 21 22  2  0
M  CHG  1  24   1
M  END
$$$$
