
     RDKit          3D

 24 28  0  0  0  0  0  0  0  0999 V2000
  -21.8525  -26.6541  -14.9483 N   0  0  0  0  0  0  0  0  0  0  0  0
  -18.8951  -28.5589  -20.2896 C   0  0  0  0  0  0  0  0  0  0  0  0
  -19.8818  -27.9753  -21.0511 C   0  0  0  0  0  0  0  0  0  0  0  0
  -20.6446  -26.9498  -20.5048 C   0  0  0  0  0  0  0  0  0  0  0  0
  -20.4442  -26.5029  -19.2361 C   0  0  0  0  0  0  0  0  0  0  0  0
  -20.1067  -26.5562  -16.2330 C   0  0  0  0  0  0  0  0  0  0  0  0
  -21.6720  -25.3527  -15.2180 C   0  0  0  0  0  0  0  0  0  0  0  0
  -20.8122  -22.8506  -16.0875 C   0  0  0  0  0  0  0  0  0  0  0  0
  -20.5716  -25.2525  -16.0312 C   0  0  0  0  0  0  0  0  0  0  0  0
  -21.5449  -29.7001  -16.4516 C   0  0  0  0  0  0  0  0  0  0  0  0
  -18.0120  -27.7848  -16.8065 N   0  0  0  0  0  0  0  0  0  0  0  0
  -17.7476  -28.5738  -17.9438 C   0  0  0  0  0  0  0  0  0  0  0  0
  -16.8995  -29.5066  -18.1087 O   0  0  0  0  0  0  0  0  0  0  0  0
  -18.9522  -26.8085  -17.0924 C   0  0  1  0  0  0  0  0  0  0  0  0
  -22.3532  -24.2152  -14.8316 C   0  0  0  0  0  0  0  0  0  0  0  0
  -21.9245  -22.9879  -15.2631 C   0  0  0  0  0  0  0  0  0  0  0  0
  -20.1399  -23.9883  -16.4680 C   0  0  0  0  0  0  0  0  0  0  0  0
  -20.8405  -28.8805  -15.4002 C   0  0  2  0  0  0  0  0  0  0  0  0
  -20.9387  -31.0887  -16.1818 C   0  0  0  0  0  0  0  0  0  0  0  0
  -19.5264  -30.7289  -15.7965 C   0  0  0  0  0  0  0  0  0  0  0  0
  -19.4307  -27.1087  -18.4706 C   0  0  0  0  0  0  0  0  0  0  0  0
  -18.6641  -28.1227  -18.9801 C   0  0  0  0  0  0  0  0  0  0  0  0
  -20.9091  -27.4315  -15.5529 C   0  0  0  0  0  0  0  0  0  0  0  0
  -19.6384  -29.4978  -15.0090 N   0  0  0  0  0  4  0  0  0  0  0  0
  1  7  1  0
 23  1  1  0
  3  2  2  0
 22  2  1  0
  4  3  1  0
  5  4  2  0
 21  5  1  0
  6  9  1  0
 14  6  1  1
 23  6  2  0
  9  7  2  0
  7 15  1  0
  8 16  1  0
 17  8  2  0
  9 17  1  0
 10 18  1  1
 19 10  1  1
 11 12  1  0
 14 11  1  0
 12 13  2  0
 12 22  1  0
 14 21  1  0
 15 16  2  0
 18 23  1  6
 18 24  1  0
 20 19  1  1
 24 20  1  6
 21 22  2  0
M  CHG  1  24   1
M  END
$$$$
