
     RDKit          3D

 24 28  0  0  0  0  0  0  0  0999 V2000
  -21.9285  -26.7239  -14.7684 N   0  0  0  0  0  0  0  0  0  0  0  0
  -19.7332  -29.3273  -20.1305 C   0  0  0  0  0  0  0  0  0  0  0  0
  -20.3988  -28.5651  -21.0691 C   0  0  0  0  0  0  0  0  0  0  0  0
  -20.7571  -27.2705  -20.7766 C   0  0  0  0  0  0  0  0  0  0  0  0
  -20.4474  -26.7300  -19.5326 C   0  0  0  0  0  0  0  0  0  0  0  0
  -20.3379  -26.7128  -16.2968 C   0  0  0  0  0  0  0  0  0  0  0  0
  -21.7407  -25.4399  -15.0636 C   0  0  0  0  0  0  0  0  0  0  0  0
  -20.9486  -23.0138  -16.0401 C   0  0  0  0  0  0  0  0  0  0  0  0
  -20.7383  -25.4220  -16.0278 C   0  0  0  0  0  0  0  0  0  0  0  0
  -19.6841  -29.5801  -15.4553 C   0  0  0  0  0  0  0  0  0  0  0  0
  -18.7061  -28.4149  -16.7400 N   0  0  0  0  0  0  0  0  0  0  0  0
  -18.7630  -29.3685  -17.7633 C   0  0  0  0  0  0  0  0  0  0  0  0
  -18.2946  -30.5377  -17.6657 O   0  0  0  0  0  0  0  0  0  0  0  0
  -19.3224  -27.1888  -17.2279 C   0  0  1  0  0  0  0  0  0  0  0  0
  -22.3291  -24.2866  -14.6011 C   0  0  0  0  0  0  0  0  0  0  0  0
  -21.9457  -23.0552  -15.0789 C   0  0  0  0  0  0  0  0  0  0  0  0
  -20.3614  -24.1765  -16.5005 C   0  0  0  0  0  0  0  0  0  0  0  0
  -21.0896  -29.0184  -15.3681 C   0  0  2  0  0  0  0  0  0  0  0  0
  -19.8649  -30.8742  -14.6474 C   0  0  0  0  0  0  0  0  0  0  0  0
  -20.7001  -30.3590  -13.4952 C   0  0  0  0  0  0  0  0  0  0  0  0
  -19.7851  -27.4648  -18.5781 C   0  0  0  0  0  0  0  0  0  0  0  0
  -19.4394  -28.7563  -18.8975 C   0  0  0  0  0  0  0  0  0  0  0  0
  -21.0995  -27.5278  -15.4924 C   0  0  0  0  0  0  0  0  0  0  0  0
  -21.6522  -29.4838  -14.1361 N   0  0  0  0  0  4  0  0  0  0  0  0
  1  7  1  0
 23  1  1  0
  3  2  2  0
 22  2  1  0
  4  3  1  0
  5  4  2  0
 21  5  1  0
  6  9  1  0
 14  6  1  1
 23  6  2  0
  9  7  2  0
  7 15  1  0
  8 16  1  0
 17  8  2  0
  9 17  1  0
 18 10  1  0
 10 19  1  0
 11 12  1  0
 14 11  1  0
 12 13  2  0
 12 22  1  0
 14 21  1  0
 15 16  2  0
 18 23  1  1
 18 24  1  0
 19 20  1  0
 20 24  1  0
 21 22  2  0
M  CHG  1  24   1
M  END
$$$$
