
     RDKit          3D

 24 28  0  0  0  0  0  0  0  0999 V2000
  -17.4363  -27.2925  -17.7591 N   0  0  0  0  0  0  0  0  0  0  0  0
  -21.8873  -25.5604  -13.3215 C   0  0  0  0  0  0  0  0  0  0  0  0
  -21.7676  -24.1854  -13.3084 C   0  0  0  0  0  0  0  0  0  0  0  0
  -21.3036  -23.5239  -14.4206 C   0  0  0  0  0  0  0  0  0  0  0  0
  -20.9552  -24.2430  -15.5595 C   0  0  0  0  0  0  0  0  0  0  0  0
  -19.4518  -26.6108  -17.1768 C   0  0  0  0  0  0  0  0  0  0  0  0
  -17.5162  -26.0370  -18.1934 C   0  0  0  0  0  0  0  0  0  0  0  0
  -18.2213  -23.4808  -18.8534 C   0  0  0  0  0  0  0  0  0  0  0  0
  -18.7851  -25.5974  -17.8306 C   0  0  0  0  0  0  0  0  0  0  0  0
  -18.0516  -30.1055  -17.3443 C   0  0  0  0  0  0  0  0  0  0  0  0
  -21.0998  -27.9093  -16.0132 N   0  0  0  0  0  0  0  0  0  0  0  0
  -21.5616  -27.6840  -14.7110 C   0  0  0  0  0  0  0  0  0  0  0  0
  -21.9278  -28.6012  -13.9231 O   0  0  0  0  0  0  0  0  0  0  0  0
  -20.7976  -26.6188  -16.6168 C   0  0  1  0  0  0  0  0  0  0  0  0
  -16.6279  -25.2293  -18.8630 C   0  0  0  0  0  0  0  0  0  0  0  0
  -16.9621  -23.9397  -19.2049 C   0  0  0  0  0  0  0  0  0  0  0  0
  -19.1093  -24.2977  -18.1804 C   0  0  0  0  0  0  0  0  0  0  0  0
  -18.7825  -29.0404  -16.5506 C   0  0  2  0  0  0  0  0  0  0  0  0
  -17.8271  -31.1510  -16.2413 C   0  0  0  0  0  0  0  0  0  0  0  0
  -17.4129  -30.2516  -15.0967 C   0  0  0  0  0  0  0  0  0  0  0  0
  -21.0639  -25.6126  -15.6020 C   0  0  0  0  0  0  0  0  0  0  0  0
  -21.5301  -26.2479  -14.4758 C   0  0  0  0  0  0  0  0  0  0  0  0
  -18.5865  -27.6789  -17.1382 C   0  0  0  0  0  0  0  0  0  0  0  0
  -18.3272  -29.1393  -15.1964 N   0  0  0  0  0  4  0  0  0  0  0  0
  1  7  1  0
 23  1  1  0
  3  2  2  0
 22  2  1  0
  4  3  1  0
  5  4  2  0
 21  5  1  0
  6  9  1  0
 14  6  1  1
 23  6  2  0
  9  7  2  0
  7 15  1  0
  8 16  1  0
 17  8  2  0
  9 17  1  0
 18 10  1  0
 10 19  1  0
 11 12  1  0
 14 11  1  0
 12 13  2  0
 12 22  1  0
 14 21  1  0
 15 16  2  0
 18 23  1  6
 18 24  1  0
 19 20  1  0
 20 24  1  0
 21 22  2  0
M  CHG  1  24   1
M  END
$$$$
