
     RDKit          3D

 24 28  0  0  0  0  0  0  0  0999 V2000
  -22.8023  -26.9951  -15.7508 N   0  0  0  0  0  0  0  0  0  0  0  0
  -18.2804  -28.7278  -19.9091 C   0  0  0  0  0  0  0  0  0  0  0  0
  -18.9665  -28.0925  -20.9191 C   0  0  0  0  0  0  0  0  0  0  0  0
  -19.8599  -27.0769  -20.5992 C   0  0  0  0  0  0  0  0  0  0  0  0
  -20.0769  -26.6894  -19.3139 C   0  0  0  0  0  0  0  0  0  0  0  0
  -20.7254  -26.8795  -16.3678 C   0  0  0  0  0  0  0  0  0  0  0  0
  -22.5088  -25.6872  -15.7962 C   0  0  0  0  0  0  0  0  0  0  0  0
  -21.3440  -23.1697  -16.0433 C   0  0  0  0  0  0  0  0  0  0  0  0
  -21.1976  -25.5757  -16.1840 C   0  0  0  0  0  0  0  0  0  0  0  0
  -21.0986  -29.9071  -17.2670 C   0  0  0  0  0  0  0  0  0  0  0  0
  -18.5633  -28.1229  -16.2946 N   0  0  0  0  0  0  0  0  0  0  0  0
  -17.9501  -28.8668  -17.3224 C   0  0  0  0  0  0  0  0  0  0  0  0
  -17.0985  -29.8081  -17.2498 O   0  0  0  0  0  0  0  0  0  0  0  0
  -19.3567  -27.1169  -16.8211 C   0  0  1  0  0  0  0  0  0  0  0  0
  -23.2507  -24.5533  -15.5295 C   0  0  0  0  0  0  0  0  0  0  0  0
  -22.6711  -23.3185  -15.6531 C   0  0  0  0  0  0  0  0  0  0  0  0
  -20.6124  -24.3038  -16.3073 C   0  0  0  0  0  0  0  0  0  0  0  0
  -21.7548  -29.2246  -16.0935 C   0  0  2  0  0  0  0  0  0  0  0  0
  -20.9833  -31.3449  -16.7304 C   0  0  0  0  0  0  0  0  0  0  0  0
  -20.6986  -31.0977  -15.2709 C   0  0  0  0  0  0  0  0  0  0  0  0
  -19.3670  -27.3476  -18.2926 C   0  0  0  0  0  0  0  0  0  0  0  0
  -18.4818  -28.3534  -18.5758 C   0  0  0  0  0  0  0  0  0  0  0  0
  -21.7313  -27.7661  -16.0946 C   0  0  0  0  0  0  0  0  0  0  0  0
  -21.5172  -29.9383  -14.9046 N   0  0  0  0  0  4  0  0  0  0  0  0
  1  7  1  0
 23  1  1  0
  3  2  2  0
 22  2  1  0
  4  3  1  0
  5  4  2  0
 21  5  1  0
  6  9  1  0
 14  6  1  1
 23  6  2  0
  9  7  2  0
  7 15  1  0
  8 16  1  0
 17  8  2  0
  9 17  1  0
 10 18  1  1
 19 10  1  1
 11 12  1  0
 14 11  1  0
 12 13  2  0
 12 22  1  0
 14 21  1  0
 15 16  2  0
 18 23  1  1
 18 24  1  0
 20 19  1  1
 24 20  1  6
 21 22  2  0
M  CHG  1  24   1
M  END
$$$$
