
     RDKit          3D

 24 28  0  0  0  0  0  0  0  0999 V2000
  -18.9182  -28.2867  -18.4617 N   0  0  0  0  0  0  0  0  0  0  0  0
  -21.9156  -23.7556  -15.0248 C   0  0  0  0  0  0  0  0  0  0  0  0
  -21.1157  -22.7800  -15.5750 C   0  0  0  0  0  0  0  0  0  0  0  0
  -20.4973  -23.0177  -16.7969 C   0  0  0  0  0  0  0  0  0  0  0  0
  -20.6597  -24.1889  -17.4686 C   0  0  0  0  0  0  0  0  0  0  0  0
  -20.7174  -27.1626  -18.0067 C   0  0  0  0  0  0  0  0  0  0  0  0
  -19.2152  -27.6078  -19.5796 C   0  0  0  0  0  0  0  0  0  0  0  0
  -20.3113  -26.0068  -21.5773 C   0  0  0  0  0  0  0  0  0  0  0  0
  -20.3525  -26.8831  -19.3278 C   0  0  0  0  0  0  0  0  0  0  0  0
  -18.9973  -29.9740  -16.0697 C   0  0  0  0  0  0  0  0  0  0  0  0
  -22.6095  -27.1006  -16.3814 N   0  0  0  0  0  0  0  0  0  0  0  0
  -22.8322  -26.1808  -15.3372 C   0  0  0  0  0  0  0  0  0  0  0  0
  -23.5169  -26.3065  -14.2733 O   0  0  0  0  0  0  0  0  0  0  0  0
  -21.8817  -26.5166  -17.4051 C   0  0  1  0  0  0  0  0  0  0  0  0
  -18.6138  -27.5434  -20.8212 C   0  0  0  0  0  0  0  0  0  0  0  0
  -19.1586  -26.7538  -21.7989 C   0  0  0  0  0  0  0  0  0  0  0  0
  -20.9035  -26.0764  -20.3382 C   0  0  0  0  0  0  0  0  0  0  0  0
  -19.7627  -28.6777  -16.1553 C   0  0  2  0  0  0  0  0  0  0  0  0
  -18.8378  -30.1087  -14.5449 C   0  0  0  0  0  0  0  0  0  0  0  0
  -18.6600  -28.6691  -14.1343 C   0  0  0  0  0  0  0  0  0  0  0  0
  -21.4815  -25.1761  -16.8937 C   0  0  0  0  0  0  0  0  0  0  0  0
  -22.1025  -24.9725  -15.6902 C   0  0  0  0  0  0  0  0  0  0  0  0
  -19.8189  -28.0426  -17.4673 C   0  0  0  0  0  0  0  0  0  0  0  0
  -19.5622  -27.9026  -14.9985 N   0  0  0  0  0  4  0  0  0  0  0  0
  1  7  1  0
 23  1  1  0
  3  2  2  0
 22  2  1  0
  4  3  1  0
  5  4  2  0
 21  5  1  0
  6  9  1  0
 14  6  1  1
 23  6  2  0
  9  7  2  0
  7 15  1  0
  8 16  1  0
 17  8  2  0
  9 17  1  0
 10 18  1  1
 19 10  1  1
 11 12  1  0
 14 11  1  0
 12 13  2  0
 12 22  1  0
 14 21  1  0
 15 16  2  0
 18 23  1  6
 18 24  1  0
 20 19  1  1
 24 20  1  6
 21 22  2  0
M  CHG  1  24   1
M  END
$$$$
