
     RDKit          3D

 24 28  0  0  0  0  0  0  0  0999 V2000
  -19.2546  -25.9681  -16.8683 N   0  0  0  0  0  0  0  0  0  0  0  0
  -21.8430  -29.1839  -11.9562 C   0  0  0  0  0  0  0  0  0  0  0  0
  -21.2897  -28.2951  -11.0628 C   0  0  0  0  0  0  0  0  0  0  0  0
  -20.9442  -27.0209  -11.4976 C   0  0  0  0  0  0  0  0  0  0  0  0
  -21.1377  -26.6236  -12.7837 C   0  0  0  0  0  0  0  0  0  0  0  0
  -21.0207  -26.6434  -15.8039 C   0  0  0  0  0  0  0  0  0  0  0  0
  -19.9090  -24.8547  -16.5064 C   0  0  0  0  0  0  0  0  0  0  0  0
  -21.6734  -22.9356  -15.5268 C   0  0  0  0  0  0  0  0  0  0  0  0
  -21.0361  -25.2449  -15.8287 C   0  0  0  0  0  0  0  0  0  0  0  0
  -18.9609  -28.7026  -18.1531 C   0  0  0  0  0  0  0  0  0  0  0  0
  -22.4912  -28.6409  -15.5333 N   0  0  0  0  0  0  0  0  0  0  0  0
  -22.5613  -29.5307  -14.4428 C   0  0  0  0  0  0  0  0  0  0  0  0
  -22.9708  -30.7335  -14.3981 O   0  0  0  0  0  0  0  0  0  0  0  0
  -22.0763  -27.3859  -15.1189 C   0  0  1  0  0  0  0  0  0  0  0  0
  -19.6487  -23.5126  -16.7022 C   0  0  0  0  0  0  0  0  0  0  0  0
  -20.5210  -22.5744  -16.2175 C   0  0  0  0  0  0  0  0  0  0  0  0
  -21.9249  -24.2740  -15.3358 C   0  0  0  0  0  0  0  0  0  0  0  0
  -19.4398  -28.4453  -16.7467 C   0  0  2  0  0  0  0  0  0  0  0  0
  -18.2236  -30.0397  -17.9612 C   0  0  0  0  0  0  0  0  0  0  0  0
  -17.6304  -29.8598  -16.5870 C   0  0  0  0  0  0  0  0  0  0  0  0
  -21.7056  -27.5433  -13.6849 C   0  0  0  0  0  0  0  0  0  0  0  0
  -22.0544  -28.8064  -13.2871 C   0  0  0  0  0  0  0  0  0  0  0  0
  -19.9054  -27.0936  -16.4566 C   0  0  0  0  0  0  0  0  0  0  0  0
  -18.6465  -29.1390  -15.8147 N   0  0  0  0  0  4  0  0  0  0  0  0
  1  7  1  0
 23  1  1  0
  3  2  2  0
 22  2  1  0
  4  3  1  0
  5  4  2  0
 21  5  1  0
  6  9  1  0
 14  6  1  6
 23  6  2  0
  9  7  2  0
  7 15  1  0
  8 16  1  0
 17  8  2  0
  9 17  1  0
 10 18  1  1
 19 10  1  1
 11 12  1  0
 14 11  1  0
 12 13  2  0
 12 22  1  0
 14 21  1  0
 15 16  2  0
 18 23  1  1
 18 24  1  0
 20 19  1  1
 24 20  1  6
 21 22  2  0
M  CHG  1  24   1
M  END
$$$$
