
     RDKit          3D

 24 28  0  0  0  0  0  0  0  0999 V2000
  -18.7634  -28.8074  -17.6487 N   0  0  0  0  0  0  0  0  0  0  0  0
  -21.8644  -24.0483  -14.5067 C   0  0  0  0  0  0  0  0  0  0  0  0
  -21.3450  -22.9197  -15.1081 C   0  0  0  0  0  0  0  0  0  0  0  0
  -20.8704  -22.9824  -16.3967 C   0  0  0  0  0  0  0  0  0  0  0  0
  -20.9150  -24.1857  -17.0938 C   0  0  0  0  0  0  0  0  0  0  0  0
  -20.4213  -27.3622  -17.4789 C   0  0  0  0  0  0  0  0  0  0  0  0
  -18.5979  -27.9690  -18.6690 C   0  0  0  0  0  0  0  0  0  0  0  0
  -18.7420  -25.9903  -20.5480 C   0  0  0  0  0  0  0  0  0  0  0  0
  -19.6397  -27.0526  -18.5708 C   0  0  0  0  0  0  0  0  0  0  0  0
  -19.8034  -30.6799  -15.7392 C   0  0  0  0  0  0  0  0  0  0  0  0
  -22.1949  -27.4291  -15.8646 N   0  0  0  0  0  0  0  0  0  0  0  0
  -22.3794  -26.5371  -14.8015 C   0  0  0  0  0  0  0  0  0  0  0  0
  -22.8829  -26.8596  -13.6886 O   0  0  0  0  0  0  0  0  0  0  0  0
  -21.6157  -26.6923  -16.9794 C   0  0  1  0  0  0  0  0  0  0  0  0
  -17.6588  -27.9017  -19.6707 C   0  0  0  0  0  0  0  0  0  0  0  0
  -17.7123  -26.9142  -20.6265 C   0  0  0  0  0  0  0  0  0  0  0  0
  -19.6826  -26.0637  -19.5388 C   0  0  0  0  0  0  0  0  0  0  0  0
  -20.2855  -29.2432  -15.6938 C   0  0  2  0  0  0  0  0  0  0  0  0
  -19.7405  -30.9863  -14.2351 C   0  0  0  0  0  0  0  0  0  0  0  0
  -19.1176  -29.7050  -13.7242 C   0  0  0  0  0  0  0  0  0  0  0  0
  -21.4267  -25.3257  -16.5212 C   0  0  0  0  0  0  0  0  0  0  0  0
  -21.8937  -25.2341  -15.2316 C   0  0  0  0  0  0  0  0  0  0  0  0
  -19.8554  -28.4758  -16.9036 C   0  0  0  0  0  0  0  0  0  0  0  0
  -19.8053  -28.6776  -14.4689 N   0  0  0  0  0  4  0  0  0  0  0  0
  1  7  1  0
 23  1  1  0
  3  2  2  0
 22  2  1  0
  4  3  1  0
  5  4  2  0
 21  5  1  0
  6  9  1  0
 14  6  1  1
 23  6  2  0
  9  7  2  0
  7 15  1  0
  8 16  1  0
 17  8  2  0
  9 17  1  0
 18 10  1  0
 10 19  1  0
 11 12  1  0
 14 11  1  0
 12 13  2  0
 12 22  1  0
 14 21  1  0
 15 16  2  0
 18 23  1  6
 18 24  1  0
 19 20  1  0
 20 24  1  0
 21 22  2  0
M  CHG  1  24   1
M  END
$$$$
