
     RDKit          3D

 24 28  0  0  0  0  0  0  0  0999 V2000
  -23.2691  -29.2196  -17.4074 N   0  0  0  0  0  0  0  0  0  0  0  0
  -20.3545  -23.9908  -15.1606 C   0  0  0  0  0  0  0  0  0  0  0  0
  -20.9061  -23.2414  -16.1748 C   0  0  0  0  0  0  0  0  0  0  0  0
  -22.0634  -23.6908  -16.7996 C   0  0  0  0  0  0  0  0  0  0  0  0
  -22.6705  -24.8526  -16.4374 C   0  0  0  0  0  0  0  0  0  0  0  0
  -23.0248  -27.7853  -15.7978 C   0  0  0  0  0  0  0  0  0  0  0  0
  -24.4979  -28.7467  -17.1522 C   0  0  0  0  0  0  0  0  0  0  0  0
  -26.7641  -27.4464  -16.1882 C   0  0  0  0  0  0  0  0  0  0  0  0
  -24.3815  -27.8336  -16.1349 C   0  0  0  0  0  0  0  0  0  0  0  0
  -20.1399  -28.5682  -17.8398 C   0  0  0  0  0  0  0  0  0  0  0  0
  -21.5457  -27.2195  -13.8696 N   0  0  0  0  0  0  0  0  0  0  0  0
  -20.5796  -26.1974  -13.7823 C   0  0  0  0  0  0  0  0  0  0  0  0
  -19.5615  -26.1012  -13.0268 O   0  0  0  0  0  0  0  0  0  0  0  0
  -22.5493  -26.8738  -14.7596 C   0  0  1  0  0  0  0  0  0  0  0  0
  -25.7366  -29.0204  -17.6983 C   0  0  0  0  0  0  0  0  0  0  0  0
  -26.8467  -28.3770  -17.2191 C   0  0  0  0  0  0  0  0  0  0  0  0
  -25.5271  -27.1793  -15.6503 C   0  0  0  0  0  0  0  0  0  0  0  0
  -20.9170  -29.0122  -16.6265 C   0  0  2  0  0  0  0  0  0  0  0  0
  -18.6976  -28.7686  -17.3416 C   0  0  0  0  0  0  0  0  0  0  0  0
  -18.8274  -28.3881  -15.8887 C   0  0  0  0  0  0  0  0  0  0  0  0
  -22.0953  -25.6070  -15.3980 C   0  0  0  0  0  0  0  0  0  0  0  0
  -20.9543  -25.1916  -14.7648 C   0  0  0  0  0  0  0  0  0  0  0  0
  -22.3309  -28.6549  -16.5947 C   0  0  0  0  0  0  0  0  0  0  0  0
  -20.1310  -28.9067  -15.4645 N   0  0  0  0  0  4  0  0  0  0  0  0
  1  7  1  0
 23  1  1  0
  3  2  2  0
 22  2  1  0
  4  3  1  0
  5  4  2  0
 21  5  1  0
  6  9  1  0
 14  6  1  6
 23  6  2  0
  9  7  2  0
  7 15  1  0
  8 16  1  0
 17  8  2  0
  9 17  1  0
 10 18  1  1
 19 10  1  1
 11 12  1  0
 14 11  1  0
 12 13  2  0
 12 22  1  0
 14 21  1  0
 15 16  2  0
 18 23  1  1
 18 24  1  0
 20 19  1  1
 24 20  1  6
 21 22  2  0
M  CHG  1  24   1
M  END
$$$$
