
     RDKit          3D

 24 28  0  0  0  0  0  0  0  0999 V2000
  -18.9456  -29.2748  -17.5053 N   0  0  0  0  0  0  0  0  0  0  0  0
  -21.6632  -24.0606  -14.5535 C   0  0  0  0  0  0  0  0  0  0  0  0
  -21.2194  -23.0120  -15.3336 C   0  0  0  0  0  0  0  0  0  0  0  0
  -20.8716  -23.2288  -16.6458 C   0  0  0  0  0  0  0  0  0  0  0  0
  -20.9681  -24.5072  -17.1862 C   0  0  0  0  0  0  0  0  0  0  0  0
  -20.4731  -27.7064  -17.2351 C   0  0  0  0  0  0  0  0  0  0  0  0
  -18.6651  -28.3558  -18.4261 C   0  0  0  0  0  0  0  0  0  0  0  0
  -18.5561  -26.1910  -20.0899 C   0  0  0  0  0  0  0  0  0  0  0  0
  -19.6238  -27.3611  -18.2639 C   0  0  0  0  0  0  0  0  0  0  0  0
  -19.5062  -30.1258  -14.6449 C   0  0  0  0  0  0  0  0  0  0  0  0
  -22.0803  -27.5807  -15.4582 N   0  0  0  0  0  0  0  0  0  0  0  0
  -22.1722  -26.5675  -14.4965 C   0  0  0  0  0  0  0  0  0  0  0  0
  -22.5609  -26.7543  -13.3091 O   0  0  0  0  0  0  0  0  0  0  0  0
  -21.6218  -26.9827  -16.7045 C   0  0  1  0  0  0  0  0  0  0  0  0
  -17.6843  -28.2744  -19.3860 C   0  0  0  0  0  0  0  0  0  0  0  0
  -17.6110  -27.1938  -20.2337 C   0  0  0  0  0  0  0  0  0  0  0  0
  -19.5392  -26.2790  -19.1232 C   0  0  0  0  0  0  0  0  0  0  0  0
  -20.5777  -29.7641  -15.6545 C   0  0  2  0  0  0  0  0  0  0  0  0
  -20.3761  -30.3240  -13.3943 C   0  0  0  0  0  0  0  0  0  0  0  0
  -21.3121  -29.1420  -13.5262 C   0  0  0  0  0  0  0  0  0  0  0  0
  -21.4070  -25.5706  -16.4339 C   0  0  0  0  0  0  0  0  0  0  0  0
  -21.7474  -25.3251  -15.1250 C   0  0  0  0  0  0  0  0  0  0  0  0
  -20.0326  -28.9207  -16.7631 C   0  0  0  0  0  0  0  0  0  0  0  0
  -21.6376  -29.1272  -14.9322 N   0  0  0  0  0  4  0  0  0  0  0  0
  1  7  1  0
 23  1  1  0
  3  2  2  0
 22  2  1  0
  4  3  1  0
  5  4  2  0
 21  5  1  0
  6  9  1  0
 14  6  1  1
 23  6  2  0
  9  7  2  0
  7 15  1  0
  8 16  1  0
 17  8  2  0
  9 17  1  0
 18 10  1  0
 10 19  1  0
 11 12  1  0
 14 11  1  0
 12 13  2  0
 12 22  1  0
 14 21  1  0
 15 16  2  0
 18 23  1  6
 18 24  1  0
 19 20  1  0
 20 24  1  0
 21 22  2  0
M  CHG  1  24   1
M  END
$$$$
