
     RDKit          3D

 31 34  0  0  0  0  0  0  0  0999 V2000
  -13.8086    8.5561    0.2162 C   0  0  0  0  0  0  0  0  0  0  0  0
  -13.8500    8.0616    1.5018 C   0  0  0  0  0  0  0  0  0  0  0  0
  -12.8387    8.2956    2.4123 C   0  0  0  0  0  0  0  0  0  0  0  0
  -11.6821    9.5438    0.7781 C   0  0  0  0  0  0  0  0  0  0  0  0
  -19.0947    8.7770   -1.5849 C   0  0  1  0  0  0  0  0  0  0  0  0
  -27.1835    9.8909   -0.5632 C   0  0  0  0  0  0  0  0  0  0  0  0
  -25.7177    9.9005   -0.5359 C   0  0  0  0  0  0  0  0  0  0  0  0
  -24.9932    9.8487   -1.7012 C   0  0  0  0  0  0  0  0  0  0  0  0
  -23.6111    9.8584   -1.6640 C   0  0  0  0  0  0  0  0  0  0  0  0
  -25.0888    9.9636    0.7038 C   0  0  0  0  0  0  0  0  0  0  0  0
  -23.7172    9.9725    0.7254 C   0  0  0  0  0  0  0  0  0  0  0  0
  -22.9696    9.9203   -0.4499 C   0  0  0  0  0  0  0  0  0  0  0  0
  -20.5330    8.5168   -1.3533 C   0  0  1  0  0  0  0  0  0  0  0  0
  -20.1994    6.2622   -1.2115 C   0  0  2  0  0  0  0  0  0  0  0  0
  -20.7564    4.9765   -0.6681 C   0  0  0  0  0  0  0  0  0  0  0  0
  -18.7307    6.4361   -0.8744 C   0  0  1  0  0  0  0  0  0  0  0  0
  -18.2498    7.5516   -1.7849 C   0  0  2  0  0  0  0  0  0  0  0  0
  -16.1906    8.0245   -0.4457 C   0  0  0  0  0  0  0  0  0  0  0  0
  -14.8863    8.3041   -0.7470 C   0  0  0  0  0  0  0  0  0  0  0  0
  -11.7342    9.0438    2.0625 C   0  0  0  0  0  0  0  0  0  0  0  0
  -12.7045    9.3046   -0.1349 C   0  0  0  0  0  0  0  0  0  0  0  0
  -10.5081   10.3559    0.3602 C   0  0  0  0  0  0  0  0  0  0  0  0
  -10.7422    9.2680    2.9698 F   0  0  0  0  0  0  0  0  0  0  0  0
  -16.8717    7.8557   -1.6016 N   0  0  0  0  0  0  0  0  0  0  0  0
  -14.8089    8.2977   -2.0887 N   0  0  0  0  0  0  0  0  0  0  0  0
  -15.9933    8.0308   -2.5645 N   0  0  0  0  0  0  0  0  0  0  0  0
  -20.8429    7.3798   -0.6712 O   0  0  0  0  0  0  0  0  0  0  0  0
  -22.0866    5.1839   -0.3430 O   0  0  0  0  0  0  0  0  0  0  0  0
  -18.6688    6.8259    0.4614 O   0  0  0  0  0  0  0  0  0  0  0  0
  -18.9846    9.5379   -2.7724 O   0  0  0  0  0  0  0  0  0  0  0  0
  -21.1876    9.9334   -0.3897 S   0  0  0  0  0  0  0  0  0  0  0  0
  1  2  2  0
 19  1  1  0
  1 21  1  0
  2  3  1  0
  3 20  2  0
  4 20  1  0
 21  4  2  0
 22  4  1  6
  5 13  1  0
 17  5  1  0
  5 30  1  6
  6  7  1  6
  8  7  2  0
 10  7  1  0
  9  8  1  0
 12  9  2  0
 11 10  2  0
 12 11  1  0
 31 12  1  0
 13 27  1  0
 13 31  1  1
 14 15  1  0
 16 14  1  0
 14 27  1  1
 15 28  1  6
 17 16  1  0
 16 29  1  1
 17 24  1  1
 18 19  2  0
 18 24  1  0
 19 25  1  0
 20 23  1  0
 24 26  1  0
 25 26  2  0
M  END
$$$$
