
     RDKit          3D

 31 34  0  0  0  0  0  0  0  0999 V2000
  -13.5355    9.4418    0.0526 C   0  0  0  0  0  0  0  0  0  0  0  0
  -12.6261   10.4751    0.1085 C   0  0  0  0  0  0  0  0  0  0  0  0
  -11.2654   10.2382    0.2932 C   0  0  0  0  0  0  0  0  0  0  0  0
  -11.7118    7.8834    0.3703 C   0  0  0  0  0  0  0  0  0  0  0  0
  -19.4431    9.9309   -0.9994 C   0  0  1  0  0  0  0  0  0  0  0  0
  -27.1018    8.1583   -4.0934 C   0  0  0  0  0  0  0  0  0  0  0  0
  -25.8888    8.5185   -3.2840 C   0  0  0  0  0  0  0  0  0  0  0  0
  -25.5738    7.8312   -2.1301 C   0  0  0  0  0  0  0  0  0  0  0  0
  -24.4416    8.1684   -1.3793 C   0  0  0  0  0  0  0  0  0  0  0  0
  -25.0671    9.5452   -3.6853 C   0  0  0  0  0  0  0  0  0  0  0  0
  -23.9481    9.8705   -2.9337 C   0  0  0  0  0  0  0  0  0  0  0  0
  -23.6188    9.1964   -1.7812 C   0  0  0  0  0  0  0  0  0  0  0  0
  -20.6405    9.2201   -1.6258 C   0  0  1  0  0  0  0  0  0  0  0  0
  -19.9536    7.1540   -0.7696 C   0  0  2  0  0  0  0  0  0  0  0  0
  -21.0071    6.6925    0.2131 C   0  0  0  0  0  0  0  0  0  0  0  0
  -18.7758    7.8113   -0.0724 C   0  0  1  0  0  0  0  0  0  0  0  0
  -18.3272    8.9409   -1.0064 C   0  0  2  0  0  0  0  0  0  0  0  0
  -15.8831    8.7859   -0.5874 C   0  0  0  0  0  0  0  0  0  0  0  0
  -14.9521    9.7029   -0.1410 C   0  0  0  0  0  0  0  0  0  0  0  0
  -10.8181    8.9296    0.4237 C   0  0  0  0  0  0  0  0  0  0  0  0
  -13.0429    8.1682    0.1867 C   0  0  0  0  0  0  0  0  0  0  0  0
  -11.2077    6.4903    0.5123 C   0  0  0  0  0  0  0  0  0  0  0  0
   -9.4802    8.7166    0.6046 F   0  0  0  0  0  0  0  0  0  0  0  0
  -17.0500    9.4252   -0.6217 N   0  0  0  0  0  0  0  0  0  0  0  0
  -15.5960   10.8681    0.0784 N   0  0  0  0  0  0  0  0  0  0  0  0
  -16.8504   10.6897   -0.2128 N   0  0  0  0  0  0  0  0  0  0  0  0
  -20.4331    7.8779   -1.8213 O   0  0  0  0  0  0  0  0  0  0  0  0
  -21.6211    5.5545   -0.2629 O   0  0  0  0  0  0  0  0  0  0  0  0
  -19.2092    8.4005    1.1235 O   0  0  0  0  0  0  0  0  0  0  0  0
  -19.1873   11.1058   -1.6573 O   0  0  0  0  0  0  0  0  0  0  0  0
  -22.1894    9.5933   -0.7968 S   0  0  0  0  0  0  0  0  0  0  0  0
  1  2  2  0
 19  1  1  0
  1 21  1  0
  2  3  1  0
  3 20  2  0
  4 20  1  0
 21  4  2  0
  4 22  1  0
  5 13  1  0
 17  5  1  0
  5 30  1  6
  7  6  1  0
  8  7  2  0
 10  7  1  0
  9  8  1  0
 12  9  2  0
 11 10  2  0
 12 11  1  0
 31 12  1  0
 13 27  1  0
 13 31  1  1
 14 15  1  1
 16 14  1  0
 14 27  1  0
 15 28  1  0
 17 16  1  0
 16 29  1  1
 17 24  1  1
 18 19  2  0
 18 24  1  0
 19 25  1  0
 20 23  1  0
 24 26  1  0
 25 26  2  0
M  END
$$$$
