
     RDKit          3D

 31 34  0  0  0  0  0  0  0  0999 V2000
  -13.8688    8.6335   -0.1576 C   0  0  0  0  0  0  0  0  0  0  0  0
  -13.1683    8.6508   -1.3441 C   0  0  0  0  0  0  0  0  0  0  0  0
  -11.8164    8.9271   -1.3956 C   0  0  0  0  0  0  0  0  0  0  0  0
  -11.7991    9.1853    0.9494 C   0  0  0  0  0  0  0  0  0  0  0  0
  -19.5900    9.4024   -0.2775 C   0  0  1  0  0  0  0  0  0  0  0  0
  -27.5372   11.4754   -0.2297 C   0  0  0  0  0  0  0  0  0  0  0  0
  -26.1597   11.0613    0.0537 C   0  0  0  0  0  0  0  0  0  0  0  0
  -25.1559   11.2923   -0.8544 C   0  0  0  0  0  0  0  0  0  0  0  0
  -23.8602   10.8977   -0.5770 C   0  0  0  0  0  0  0  0  0  0  0  0
  -25.9050   10.4298    1.2673 C   0  0  0  0  0  0  0  0  0  0  0  0
  -24.6149   10.0438    1.5290 C   0  0  0  0  0  0  0  0  0  0  0  0
  -23.5866   10.2721    0.6160 C   0  0  0  0  0  0  0  0  0  0  0  0
  -21.0389    9.3734   -0.5774 C   0  0  1  0  0  0  0  0  0  0  0  0
  -20.7828    7.7088   -2.1194 C   0  0  2  0  0  0  0  0  0  0  0  0
  -21.4830    6.5880   -2.8350 C   0  0  0  0  0  0  0  0  0  0  0  0
  -19.4635    7.2654   -1.5163 C   0  0  1  0  0  0  0  0  0  0  0  0
  -18.7364    8.5539   -1.1758 C   0  0  2  0  0  0  0  0  0  0  0  0
  -16.2595    8.8275   -0.9584 C   0  0  0  0  0  0  0  0  0  0  0  0
  -15.3054    8.3393   -0.1090 C   0  0  0  0  0  0  0  0  0  0  0  0
  -11.1080    9.1998   -0.2442 C   0  0  0  0  0  0  0  0  0  0  0  0
  -13.1615    8.9061    0.9948 C   0  0  0  0  0  0  0  0  0  0  0  0
  -11.0726    9.4742    2.2148 C   0  0  0  0  0  0  0  0  0  0  0  0
   -9.7739    9.4712   -0.3075 F   0  0  0  0  0  0  0  0  0  0  0  0
  -17.4601    8.3267   -0.5890 N   0  0  0  0  0  0  0  0  0  0  0  0
  -15.9566    7.5485    0.7608 N   0  0  0  0  0  0  0  0  0  0  0  0
  -17.2239    7.5606    0.4534 N   0  0  0  0  0  0  0  0  0  0  0  0
  -21.5385    8.1981   -1.0496 O   0  0  0  0  0  0  0  0  0  0  0  0
  -22.8143    6.9372   -2.9892 O   0  0  0  0  0  0  0  0  0  0  0  0
  -19.7703    6.5500   -0.3612 O   0  0  0  0  0  0  0  0  0  0  0  0
  -19.1462   10.7352   -0.4448 O   0  0  0  0  0  0  0  0  0  0  0  0
  -21.9193    9.7587    0.9847 S   0  0  0  0  0  0  0  0  0  0  0  0
  1  2  2  0
 19  1  1  0
  1 21  1  0
  2  3  1  0
  3 20  2  0
  4 20  1  0
 21  4  2  0
 22  4  1  6
  5 13  1  0
 17  5  1  0
  5 30  1  6
  6  7  1  6
  8  7  2  0
 10  7  1  0
  9  8  1  0
 12  9  2  0
 11 10  2  0
 12 11  1  0
 31 12  1  0
 13 27  1  0
 13 31  1  1
 14 15  1  0
 16 14  1  0
 14 27  1  1
 15 28  1  6
 17 16  1  0
 16 29  1  1
 17 24  1  1
 18 19  2  0
 18 24  1  0
 19 25  1  0
 20 23  1  0
 24 26  1  0
 25 26  2  0
M  END
$$$$
