
     RDKit          3D

 31 34  0  0  0  0  0  0  0  0999 V2000
  -13.5096    8.4598   -0.0250 C   0  0  0  0  0  0  0  0  0  0  0  0
  -13.5512    8.1917    1.3256 C   0  0  0  0  0  0  0  0  0  0  0  0
  -12.4367    8.3813    2.1402 C   0  0  0  0  0  0  0  0  0  0  0  0
  -11.1967    9.1253    0.2274 C   0  0  0  0  0  0  0  0  0  0  0  0
  -18.8735    9.3359   -1.2047 C   0  0  1  0  0  0  0  0  0  0  0  0
  -27.2603    9.6460   -2.3065 C   0  0  0  0  0  0  0  0  0  0  0  0
  -25.8373    9.6630   -1.8260 C   0  0  0  0  0  0  0  0  0  0  0  0
  -24.9415   10.6047   -2.2883 C   0  0  0  0  0  0  0  0  0  0  0  0
  -23.6166   10.6188   -1.8370 C   0  0  0  0  0  0  0  0  0  0  0  0
  -25.4035    8.7341   -0.9098 C   0  0  0  0  0  0  0  0  0  0  0  0
  -24.0887    8.7575   -0.4695 C   0  0  0  0  0  0  0  0  0  0  0  0
  -23.1823    9.6888   -0.9195 C   0  0  0  0  0  0  0  0  0  0  0  0
  -20.3329    9.1401   -1.6085 C   0  0  1  0  0  0  0  0  0  0  0  0
  -20.1932    6.8301   -1.2650 C   0  0  2  0  0  0  0  0  0  0  0  0
  -21.1279    6.4788   -0.1285 C   0  0  0  0  0  0  0  0  0  0  0  0
  -18.7555    6.9660   -0.7963 C   0  0  1  0  0  0  0  0  0  0  0  0
  -18.1578    8.1003   -1.6365 C   0  0  2  0  0  0  0  0  0  0  0  0
  -15.9921    8.3782   -0.4509 C   0  0  0  0  0  0  0  0  0  0  0  0
  -14.6796    8.2582   -0.8632 C   0  0  0  0  0  0  0  0  0  0  0  0
  -11.2580    8.8514    1.5755 C   0  0  0  0  0  0  0  0  0  0  0  0
  -12.3220    8.9222   -0.5336 C   0  0  0  0  0  0  0  0  0  0  0  0
   -9.9224    9.6285   -0.3538 C   0  0  0  0  0  0  0  0  0  0  0  0
  -10.1751    9.0309    2.3899 F   0  0  0  0  0  0  0  0  0  0  0  0
  -16.7439    8.1144   -1.5172 N   0  0  0  0  0  0  0  0  0  0  0  0
  -14.6888    7.9243   -2.1705 N   0  0  0  0  0  0  0  0  0  0  0  0
  -15.9293    7.8411   -2.5505 N   0  0  0  0  0  0  0  0  0  0  0  0
  -20.6091    7.8687   -2.0448 O   0  0  0  0  0  0  0  0  0  0  0  0
  -21.7862    5.3025   -0.4137 O   0  0  0  0  0  0  0  0  0  0  0  0
  -18.7368    7.3791    0.5432 O   0  0  0  0  0  0  0  0  0  0  0  0
  -18.3868   10.5065   -1.7257 O   0  0  0  0  0  0  0  0  0  0  0  0
  -21.4889    9.7412   -0.3724 S   0  0  0  0  0  0  0  0  0  0  0  0
  1  2  2  0
 19  1  1  0
  1 21  1  0
  2  3  1  0
  3 20  2  0
  4 20  1  0
 21  4  2  0
  4 22  1  0
  5 13  1  0
 17  5  1  0
  5 30  1  6
  7  6  1  0
  8  7  2  0
 10  7  1  0
  9  8  1  0
 12  9  2  0
 11 10  2  0
 12 11  1  0
 31 12  1  0
 13 27  1  0
 13 31  1  1
 14 15  1  1
 16 14  1  0
 14 27  1  0
 15 28  1  0
 17 16  1  0
 16 29  1  1
 17 24  1  1
 18 19  2  0
 18 24  1  0
 19 25  1  0
 20 23  1  0
 24 26  1  0
 25 26  2  0
M  END
$$$$
