
     RDKit          3D

 31 34  0  0  0  0  0  0  0  0999 V2000
  -13.5445    8.6302   -0.2469 C   0  0  0  0  0  0  0  0  0  0  0  0
  -12.6125    9.4045   -0.9030 C   0  0  0  0  0  0  0  0  0  0  0  0
  -11.5972   10.0581   -0.2333 C   0  0  0  0  0  0  0  0  0  0  0  0
  -12.4053    9.1855    1.8043 C   0  0  0  0  0  0  0  0  0  0  0  0
  -18.7306    8.4672   -1.7232 C   0  0  1  0  0  0  0  0  0  0  0  0
  -26.5802   10.7921   -1.3023 C   0  0  0  0  0  0  0  0  0  0  0  0
  -25.1334   10.6096   -1.1516 C   0  0  0  0  0  0  0  0  0  0  0  0
  -24.2829   11.6873   -1.1785 C   0  0  0  0  0  0  0  0  0  0  0  0
  -22.9200   11.5039   -1.0354 C   0  0  0  0  0  0  0  0  0  0  0  0
  -24.6535    9.3145   -0.9811 C   0  0  0  0  0  0  0  0  0  0  0  0
  -23.2992    9.1476   -0.8403 C   0  0  0  0  0  0  0  0  0  0  0  0
  -22.4248   10.2328   -0.8658 C   0  0  0  0  0  0  0  0  0  0  0  0
  -20.1882    8.4029   -1.4754 C   0  0  1  0  0  0  0  0  0  0  0  0
  -20.1178    6.1547   -1.0817 C   0  0  2  0  0  0  0  0  0  0  0  0
  -20.8175    5.0107   -0.4033 C   0  0  0  0  0  0  0  0  0  0  0  0
  -18.6371    6.1934   -0.7544 C   0  0  1  0  0  0  0  0  0  0  0  0
  -18.0346    7.1375   -1.7793 C   0  0  2  0  0  0  0  0  0  0  0  0
  -15.9637    8.1138   -0.7715 C   0  0  0  0  0  0  0  0  0  0  0  0
  -14.6213    7.9380   -0.9639 C   0  0  0  0  0  0  0  0  0  0  0  0
  -11.4777    9.9580    1.1370 C   0  0  0  0  0  0  0  0  0  0  0  0
  -13.4262    8.5292    1.1237 C   0  0  0  0  0  0  0  0  0  0  0  0
  -12.3123    9.0511    3.2827 C   0  0  0  0  0  0  0  0  0  0  0  0
  -10.4714   10.6078    1.7872 F   0  0  0  0  0  0  0  0  0  0  0  0
  -16.6297    7.2983   -1.6201 N   0  0  0  0  0  0  0  0  0  0  0  0
  -14.5062    7.0129   -1.9320 N   0  0  0  0  0  0  0  0  0  0  0  0
  -15.7053    6.6548   -2.2988 N   0  0  0  0  0  0  0  0  0  0  0  0
  -20.6245    7.3924   -0.6738 O   0  0  0  0  0  0  0  0  0  0  0  0
  -22.1719    5.1086   -0.6754 O   0  0  0  0  0  0  0  0  0  0  0  0
  -18.5236    6.7196    0.5303 O   0  0  0  0  0  0  0  0  0  0  0  0
  -18.5389    9.0735   -2.9869 O   0  0  0  0  0  0  0  0  0  0  0  0
  -20.6689    9.9841   -0.6802 S   0  0  0  0  0  0  0  0  0  0  0  0
  1  2  2  0
 19  1  1  0
  1 21  1  0
  2  3  1  0
  3 20  2  0
  4 20  1  0
 21  4  2  0
 22  4  1  6
  5 13  1  0
 17  5  1  0
  5 30  1  6
  6  7  1  6
  8  7  2  0
 10  7  1  0
  9  8  1  0
 12  9  2  0
 11 10  2  0
 12 11  1  0
 31 12  1  0
 13 27  1  0
 13 31  1  1
 14 15  1  0
 16 14  1  0
 14 27  1  1
 15 28  1  6
 17 16  1  0
 16 29  1  1
 17 24  1  1
 18 19  2  0
 18 24  1  0
 19 25  1  0
 20 23  1  0
 24 26  1  0
 25 26  2  0
M  END
$$$$
