
     RDKit          3D

 31 34  0  0  0  0  0  0  0  0999 V2000
  -13.9336    9.4697   -0.2785 C   0  0  0  0  0  0  0  0  0  0  0  0
  -13.9889   10.8256   -0.0392 C   0  0  0  0  0  0  0  0  0  0  0  0
  -12.8550   11.6129   -0.0049 C   0  0  0  0  0  0  0  0  0  0  0  0
  -11.5403    9.7057   -0.4524 C   0  0  0  0  0  0  0  0  0  0  0  0
  -19.3459    8.9907   -0.7975 C   0  0  1  0  0  0  0  0  0  0  0  0
  -27.2398   11.0600   -1.2292 C   0  0  0  0  0  0  0  0  0  0  0  0
  -25.8536   10.7965   -0.8314 C   0  0  0  0  0  0  0  0  0  0  0  0
  -25.2710   11.5009    0.1933 C   0  0  0  0  0  0  0  0  0  0  0  0
  -23.9630   11.2443    0.5604 C   0  0  0  0  0  0  0  0  0  0  0  0
  -25.1520    9.8139   -1.5232 C   0  0  0  0  0  0  0  0  0  0  0  0
  -23.8552    9.5701   -1.1481 C   0  0  0  0  0  0  0  0  0  0  0  0
  -23.2517   10.2778   -0.1098 C   0  0  0  0  0  0  0  0  0  0  0  0
  -20.8113    8.7968   -0.8675 C   0  0  1  0  0  0  0  0  0  0  0  0
  -20.5899    6.5723   -1.3336 C   0  0  2  0  0  0  0  0  0  0  0  0
  -21.2769    5.2370   -1.2731 C   0  0  0  0  0  0  0  0  0  0  0  0
  -19.1923    6.5227   -0.7461 C   0  0  1  0  0  0  0  0  0  0  0  0
  -18.5255    7.8037   -1.2141 C   0  0  2  0  0  0  0  0  0  0  0  0
  -16.3154    8.9441   -0.9456 C   0  0  0  0  0  0  0  0  0  0  0  0
  -15.1419    8.6382   -0.3136 C   0  0  0  0  0  0  0  0  0  0  0  0
  -11.6077   11.0622   -0.2119 C   0  0  0  0  0  0  0  0  0  0  0  0
  -12.6867    8.9176   -0.4857 C   0  0  0  0  0  0  0  0  0  0  0  0
  -10.2143    9.0718   -0.6808 C   0  0  0  0  0  0  0  0  0  0  0  0
  -10.4956   11.8493   -0.1757 F   0  0  0  0  0  0  0  0  0  0  0  0
  -17.1869    7.9292   -0.7480 N   0  0  0  0  0  0  0  0  0  0  0  0
  -15.3329    7.4359    0.2557 N   0  0  0  0  0  0  0  0  0  0  0  0
  -16.5462    7.0434   -0.0171 N   0  0  0  0  0  0  0  0  0  0  0  0
  -21.2724    7.5446   -0.5962 O   0  0  0  0  0  0  0  0  0  0  0  0
  -22.5850    5.4032   -1.6967 O   0  0  0  0  0  0  0  0  0  0  0  0
  -19.3390    6.5186    0.6391 O   0  0  0  0  0  0  0  0  0  0  0  0
  -19.0116   10.0403   -1.6851 O   0  0  0  0  0  0  0  0  0  0  0  0
  -21.5640    9.9382    0.3549 S   0  0  0  0  0  0  0  0  0  0  0  0
  1  2  2  0
 19  1  1  0
  1 21  1  0
  2  3  1  0
  3 20  2  0
  4 20  1  0
 21  4  2  0
 22  4  1  6
  5 13  1  0
 17  5  1  0
  5 30  1  6
  6  7  1  6
  8  7  2  0
 10  7  1  0
  9  8  1  0
 12  9  2  0
 11 10  2  0
 12 11  1  0
 31 12  1  0
 13 27  1  0
 13 31  1  1
 14 15  1  0
 16 14  1  0
 14 27  1  1
 15 28  1  6
 17 16  1  0
 16 29  1  1
 17 24  1  1
 18 19  2  0
 18 24  1  0
 19 25  1  0
 20 23  1  0
 24 26  1  0
 25 26  2  0
M  END
$$$$
