
     RDKit          3D

 31 34  0  0  0  0  0  0  0  0999 V2000
  -13.3617    8.9101    0.1033 C   0  0  0  0  0  0  0  0  0  0  0  0
  -12.3766    9.7874   -0.2939 C   0  0  0  0  0  0  0  0  0  0  0  0
  -11.2455   10.0144    0.4876 C   0  0  0  0  0  0  0  0  0  0  0  0
  -12.0841    8.4587    2.1082 C   0  0  0  0  0  0  0  0  0  0  0  0
  -18.8819    9.0985   -0.8841 C   0  0  1  0  0  0  0  0  0  0  0  0
  -27.0930    9.8800   -2.1624 C   0  0  0  0  0  0  0  0  0  0  0  0
  -25.7137    9.6610   -1.6096 C   0  0  0  0  0  0  0  0  0  0  0  0
  -24.6611    9.3254   -2.4357 C   0  0  0  0  0  0  0  0  0  0  0  0
  -23.3767    9.1239   -1.9173 C   0  0  0  0  0  0  0  0  0  0  0  0
  -25.4775    9.7945   -0.2617 C   0  0  0  0  0  0  0  0  0  0  0  0
  -24.2010    9.5926    0.2409 C   0  0  0  0  0  0  0  0  0  0  0  0
  -23.1402    9.2577   -0.5677 C   0  0  0  0  0  0  0  0  0  0  0  0
  -20.2987    8.6628   -1.2507 C   0  0  1  0  0  0  0  0  0  0  0  0
  -19.7380    6.4021   -1.0301 C   0  0  2  0  0  0  0  0  0  0  0  0
  -20.5490    5.8390    0.1162 C   0  0  0  0  0  0  0  0  0  0  0  0
  -18.3294    6.7721   -0.6011 C   0  0  1  0  0  0  0  0  0  0  0  0
  -17.9766    8.0313   -1.4008 C   0  0  2  0  0  0  0  0  0  0  0  0
  -15.8131    8.4462   -0.2517 C   0  0  0  0  0  0  0  0  0  0  0  0
  -14.5363    8.6822   -0.7217 C   0  0  0  0  0  0  0  0  0  0  0  0
  -11.1103    9.3397    1.6941 C   0  0  0  0  0  0  0  0  0  0  0  0
  -13.1804    8.2689    1.3028 C   0  0  0  0  0  0  0  0  0  0  0  0
  -11.9158    7.7476    3.4048 C   0  0  0  0  0  0  0  0  0  0  0  0
   -9.9943    9.5753    2.4475 F   0  0  0  0  0  0  0  0  0  0  0  0
  -16.5839    8.2929   -1.3260 N   0  0  0  0  0  0  0  0  0  0  0  0
  -14.5848    8.6620   -2.0699 N   0  0  0  0  0  0  0  0  0  0  0  0
  -15.8149    8.4282   -2.4198 N   0  0  0  0  0  0  0  0  0  0  0  0
  -20.3625    7.3833   -1.7423 O   0  0  0  0  0  0  0  0  0  0  0  0
  -21.7593    5.3767   -0.3528 O   0  0  0  0  0  0  0  0  0  0  0  0
  -18.3301    7.1218    0.7565 O   0  0  0  0  0  0  0  0  0  0  0  0
  -18.6318   10.3593   -1.3599 O   0  0  0  0  0  0  0  0  0  0  0  0
  -21.4920    8.9917    0.0506 S   0  0  0  0  0  0  0  0  0  0  0  0
  1  2  2  0
 19  1  1  0
  1 21  1  0
  2  3  1  0
  3 20  2  0
  4 20  1  0
 21  4  2  0
  4 22  1  0
  5 13  1  0
 17  5  1  0
  5 30  1  6
  7  6  1  0
  8  7  2  0
 10  7  1  0
  9  8  1  0
 12  9  2  0
 11 10  2  0
 12 11  1  0
 31 12  1  0
 13 27  1  0
 13 31  1  1
 14 15  1  1
 16 14  1  0
 14 27  1  0
 15 28  1  0
 17 16  1  0
 16 29  1  1
 17 24  1  1
 18 19  2  0
 18 24  1  0
 19 25  1  0
 20 23  1  0
 24 26  1  0
 25 26  2  0
M  END
$$$$
