
     RDKit          3D

 31 34  0  0  0  0  0  0  0  0999 V2000
  -13.5655    8.9731   -0.0896 C   0  0  0  0  0  0  0  0  0  0  0  0
  -12.8873    8.2830   -1.0707 C   0  0  0  0  0  0  0  0  0  0  0  0
  -11.5086    8.2123   -1.1003 C   0  0  0  0  0  0  0  0  0  0  0  0
  -11.4178    9.5332    0.8524 C   0  0  0  0  0  0  0  0  0  0  0  0
  -19.3999    9.1520   -1.1597 C   0  0  1  0  0  0  0  0  0  0  0  0
  -27.5013    9.0854   -2.5581 C   0  0  0  0  0  0  0  0  0  0  0  0
  -26.1211    9.3233   -2.1250 C   0  0  0  0  0  0  0  0  0  0  0  0
  -25.0840    9.2707   -3.0234 C   0  0  0  0  0  0  0  0  0  0  0  0
  -23.7861    9.4967   -2.6042 C   0  0  0  0  0  0  0  0  0  0  0  0
  -25.8985    9.6028   -0.7800 C   0  0  0  0  0  0  0  0  0  0  0  0
  -24.6057    9.8249   -0.3784 C   0  0  0  0  0  0  0  0  0  0  0  0
  -23.5438    9.7745   -1.2800 C   0  0  0  0  0  0  0  0  0  0  0  0
  -20.7994    8.6833   -1.2684 C   0  0  1  0  0  0  0  0  0  0  0  0
  -20.2260    6.5444   -0.7104 C   0  0  2  0  0  0  0  0  0  0  0  0
  -20.7384    5.2509   -0.1421 C   0  0  0  0  0  0  0  0  0  0  0  0
  -18.9434    6.9955   -0.0380 C   0  0  1  0  0  0  0  0  0  0  0  0
  -18.3799    8.0696   -0.9509 C   0  0  2  0  0  0  0  0  0  0  0  0
  -15.8919    8.2379   -0.7541 C   0  0  0  0  0  0  0  0  0  0  0  0
  -15.0307    9.0449   -0.0633 C   0  0  0  0  0  0  0  0  0  0  0  0
  -10.7495    8.8393   -0.1346 C   0  0  0  0  0  0  0  0  0  0  0  0
  -12.8074    9.6007    0.8768 C   0  0  0  0  0  0  0  0  0  0  0  0
  -10.6366   10.2239    1.9131 C   0  0  0  0  0  0  0  0  0  0  0  0
   -9.3893    8.7625   -0.1743 F   0  0  0  0  0  0  0  0  0  0  0  0
  -17.1581    8.6166   -0.4681 N   0  0  0  0  0  0  0  0  0  0  0  0
  -15.8026    9.8993    0.6297 N   0  0  0  0  0  0  0  0  0  0  0  0
  -17.0506    9.6230    0.3715 N   0  0  0  0  0  0  0  0  0  0  0  0
  -21.1342    7.5917   -0.5265 O   0  0  0  0  0  0  0  0  0  0  0  0
  -22.1218    5.2686   -0.2035 O   0  0  0  0  0  0  0  0  0  0  0  0
  -19.3042    7.5333    1.1952 O   0  0  0  0  0  0  0  0  0  0  0  0
  -19.0667    9.7868   -2.3793 O   0  0  0  0  0  0  0  0  0  0  0  0
  -21.8740   10.0677   -0.7278 S   0  0  0  0  0  0  0  0  0  0  0  0
  1  2  2  0
 19  1  1  0
  1 21  1  0
  2  3  1  0
  3 20  2  0
  4 20  1  0
 21  4  2  0
 22  4  1  6
  5 13  1  0
 17  5  1  0
  5 30  1  6
  6  7  1  6
  8  7  2  0
 10  7  1  0
  9  8  1  0
 12  9  2  0
 11 10  2  0
 12 11  1  0
 31 12  1  0
 13 27  1  0
 13 31  1  1
 14 15  1  0
 16 14  1  0
 14 27  1  1
 15 28  1  6
 17 16  1  0
 16 29  1  1
 17 24  1  1
 18 19  2  0
 18 24  1  0
 19 25  1  0
 20 23  1  0
 24 26  1  0
 25 26  2  0
M  END
$$$$
