
     RDKit          3D

 31 34  0  0  0  0  0  0  0  0999 V2000
  -13.4372    8.7476   -0.1181 C   0  0  0  0  0  0  0  0  0  0  0  0
  -12.2342    8.0786   -0.1811 C   0  0  0  0  0  0  0  0  0  0  0  0
  -11.1596    8.4218    0.6152 C   0  0  0  0  0  0  0  0  0  0  0  0
  -12.4528   10.1390    1.5873 C   0  0  0  0  0  0  0  0  0  0  0  0
  -18.8165    8.8138   -1.7619 C   0  0  1  0  0  0  0  0  0  0  0  0
  -26.8309   10.4282   -0.8744 C   0  0  0  0  0  0  0  0  0  0  0  0
  -25.3657   10.3831   -0.8528 C   0  0  0  0  0  0  0  0  0  0  0  0
  -24.7035    9.3962   -0.1649 C   0  0  0  0  0  0  0  0  0  0  0  0
  -23.3214    9.3630   -0.1510 C   0  0  0  0  0  0  0  0  0  0  0  0
  -24.6724   11.3684   -1.5490 C   0  0  0  0  0  0  0  0  0  0  0  0
  -23.3015   11.3229   -1.5265 C   0  0  0  0  0  0  0  0  0  0  0  0
  -22.6169   10.3268   -0.8323 C   0  0  0  0  0  0  0  0  0  0  0  0
  -20.2491    8.6631   -1.4226 C   0  0  1  0  0  0  0  0  0  0  0  0
  -19.9564    6.5058   -0.7335 C   0  0  2  0  0  0  0  0  0  0  0  0
  -20.5169    5.4133    0.1331 C   0  0  0  0  0  0  0  0  0  0  0  0
  -18.4718    6.7136   -0.5019 C   0  0  1  0  0  0  0  0  0  0  0  0
  -18.0060    7.5523   -1.6785 C   0  0  2  0  0  0  0  0  0  0  0  0
  -15.8619    8.1747   -0.5501 C   0  0  0  0  0  0  0  0  0  0  0  0
  -14.5756    8.3784   -0.9670 C   0  0  0  0  0  0  0  0  0  0  0  0
  -11.2531    9.4621    1.5157 C   0  0  0  0  0  0  0  0  0  0  0  0
  -13.5321    9.7883    0.7821 C   0  0  0  0  0  0  0  0  0  0  0  0
  -12.5958   11.2676    2.5455 C   0  0  0  0  0  0  0  0  0  0  0  0
  -10.1857    9.7917    2.2964 F   0  0  0  0  0  0  0  0  0  0  0  0
  -16.6156    7.8507   -1.6251 N   0  0  0  0  0  0  0  0  0  0  0  0
  -14.5816    8.1712   -2.2948 N   0  0  0  0  0  0  0  0  0  0  0  0
  -15.7965    7.8620   -2.6539 N   0  0  0  0  0  0  0  0  0  0  0  0
  -20.5540    7.7417   -0.4676 O   0  0  0  0  0  0  0  0  0  0  0  0
  -21.7840    5.1001   -0.3299 O   0  0  0  0  0  0  0  0  0  0  0  0
  -18.3468    7.4218    0.6911 O   0  0  0  0  0  0  0  0  0  0  0  0
  -18.7399    9.2514   -3.1050 O   0  0  0  0  0  0  0  0  0  0  0  0
  -20.8341   10.2941   -0.8216 S   0  0  0  0  0  0  0  0  0  0  0  0
  1  2  2  0
 19  1  1  0
  1 21  1  0
  2  3  1  0
  3 20  2  0
  4 20  1  0
 21  4  2  0
 22  4  1  6
  5 13  1  0
 17  5  1  0
  5 30  1  6
  6  7  1  6
  8  7  2  0
 10  7  1  0
  9  8  1  0
 12  9  2  0
 11 10  2  0
 12 11  1  0
 31 12  1  0
 13 27  1  0
 13 31  1  1
 14 15  1  0
 16 14  1  0
 14 27  1  1
 15 28  1  6
 17 16  1  0
 16 29  1  1
 17 24  1  1
 18 19  2  0
 18 24  1  0
 19 25  1  0
 20 23  1  0
 24 26  1  0
 25 26  2  0
M  END
$$$$
