
     RDKit          3D

 31 34  0  0  0  0  0  0  0  0999 V2000
  -13.9133    9.4491   -0.1228 C   0  0  0  0  0  0  0  0  0  0  0  0
  -12.5721    9.6538   -0.3640 C   0  0  0  0  0  0  0  0  0  0  0  0
  -11.5990    9.3061    0.5519 C   0  0  0  0  0  0  0  0  0  0  0  0
  -13.2793    8.5232    2.0113 C   0  0  0  0  0  0  0  0  0  0  0  0
  -19.1084    9.8604   -1.1307 C   0  0  1  0  0  0  0  0  0  0  0  0
  -26.4689   10.1851    1.8837 C   0  0  0  0  0  0  0  0  0  0  0  0
  -25.1533    9.7390    1.4152 C   0  0  0  0  0  0  0  0  0  0  0  0
  -24.9852    8.4839    0.8841 C   0  0  0  0  0  0  0  0  0  0  0  0
  -23.7401    8.0734    0.4453 C   0  0  0  0  0  0  0  0  0  0  0  0
  -24.0864   10.6254    1.5262 C   0  0  0  0  0  0  0  0  0  0  0  0
  -22.8569   10.2046    1.0867 C   0  0  0  0  0  0  0  0  0  0  0  0
  -22.6725    8.9333    0.5456 C   0  0  0  0  0  0  0  0  0  0  0  0
  -20.5184    9.4964   -1.3949 C   0  0  1  0  0  0  0  0  0  0  0  0
  -20.1901    9.4814   -3.6547 C   0  0  2  0  0  0  0  0  0  0  0  0
  -20.7001    8.9379   -4.9597 C   0  0  0  0  0  0  0  0  0  0  0  0
  -18.6937    9.2866   -3.5005 C   0  0  1  0  0  0  0  0  0  0  0  0
  -18.2975   10.1942   -2.3499 C   0  0  2  0  0  0  0  0  0  0  0  0
  -16.2942    9.6844   -0.9413 C   0  0  0  0  0  0  0  0  0  0  0  0
  -14.9428    9.8208   -1.0998 C   0  0  0  0  0  0  0  0  0  0  0  0
  -11.9396    8.7328    1.7591 C   0  0  0  0  0  0  0  0  0  0  0  0
  -14.2552    8.8758    1.0843 C   0  0  0  0  0  0  0  0  0  0  0  0
  -13.6895    7.9073    3.3015 C   0  0  0  0  0  0  0  0  0  0  0  0
  -10.9703    8.3938    2.6553 F   0  0  0  0  0  0  0  0  0  0  0  0
  -16.9057   10.1379   -2.0589 N   0  0  0  0  0  0  0  0  0  0  0  0
  -14.7675   10.3577   -2.3193 N   0  0  0  0  0  0  0  0  0  0  0  0
  -15.9409   10.5333   -2.8603 N   0  0  0  0  0  0  0  0  0  0  0  0
  -20.7674    8.8339   -2.5580 O   0  0  0  0  0  0  0  0  0  0  0  0
  -22.0728    9.1173   -4.9968 O   0  0  0  0  0  0  0  0  0  0  0  0
  -18.4952    7.9489   -3.1667 O   0  0  0  0  0  0  0  0  0  0  0  0
  -19.1118   11.0208   -0.3216 O   0  0  0  0  0  0  0  0  0  0  0  0
  -21.0619    8.4148   -0.0171 S   0  0  0  0  0  0  0  0  0  0  0  0
  1  2  2  0
 19  1  1  0
  1 21  1  0
  2  3  1  0
  3 20  2  0
  4 20  1  0
 21  4  2  0
 22  4  1  6
  5 13  1  0
 17  5  1  0
  5 30  1  1
  6  7  1  6
  8  7  2  0
 10  7  1  0
  9  8  1  0
 12  9  2  0
 11 10  2  0
 12 11  1  0
 31 12  1  0
 13 27  1  0
 13 31  1  1
 14 15  1  0
 16 14  1  0
 14 27  1  1
 15 28  1  6
 17 16  1  0
 16 29  1  1
 17 24  1  1
 18 19  2  0
 18 24  1  0
 19 25  1  0
 20 23  1  0
 24 26  1  0
 25 26  2  0
M  END
$$$$
