
     RDKit          3D

 31 34  0  0  0  0  0  0  0  0999 V2000
  -13.4534    8.7931   -0.2533 C   0  0  0  0  0  0  0  0  0  0  0  0
  -12.8378    8.4842   -1.4469 C   0  0  0  0  0  0  0  0  0  0  0  0
  -11.4642    8.4157   -1.5694 C   0  0  0  0  0  0  0  0  0  0  0  0
  -11.2520    8.9679    0.7145 C   0  0  0  0  0  0  0  0  0  0  0  0
  -19.2944    9.2293   -1.0633 C   0  0  1  0  0  0  0  0  0  0  0  0
  -27.2458   10.0725   -2.7995 C   0  0  0  0  0  0  0  0  0  0  0  0
  -25.8915   10.0907   -2.2384 C   0  0  0  0  0  0  0  0  0  0  0  0
  -25.0537    9.0134   -2.3903 C   0  0  0  0  0  0  0  0  0  0  0  0
  -23.7784    9.0412   -1.8572 C   0  0  0  0  0  0  0  0  0  0  0  0
  -25.4857   11.2303   -1.5505 C   0  0  0  0  0  0  0  0  0  0  0  0
  -24.2178   11.2438   -1.0270 C   0  0  0  0  0  0  0  0  0  0  0  0
  -23.3573   10.1571   -1.1739 C   0  0  0  0  0  0  0  0  0  0  0  0
  -20.7159    8.8358   -1.1844 C   0  0  1  0  0  0  0  0  0  0  0  0
  -20.2309    6.6284   -0.8577 C   0  0  2  0  0  0  0  0  0  0  0  0
  -20.7910    5.3078   -0.4096 C   0  0  0  0  0  0  0  0  0  0  0  0
  -18.9158    6.9524   -0.1747 C   0  0  1  0  0  0  0  0  0  0  0  0
  -18.3215    8.0877   -0.9888 C   0  0  2  0  0  0  0  0  0  0  0  0
  -15.8241    8.2058   -0.9083 C   0  0  0  0  0  0  0  0  0  0  0  0
  -14.9136    8.8645   -0.1292 C   0  0  0  0  0  0  0  0  0  0  0  0
  -10.6467    8.6577   -0.4854 C   0  0  0  0  0  0  0  0  0  0  0  0
  -12.6369    9.0353    0.8316 C   0  0  0  0  0  0  0  0  0  0  0  0
  -10.4065    9.2360    1.9085 C   0  0  0  0  0  0  0  0  0  0  0  0
   -9.2921    8.5872   -0.6185 F   0  0  0  0  0  0  0  0  0  0  0  0
  -17.0665    8.5288   -0.4833 N   0  0  0  0  0  0  0  0  0  0  0  0
  -15.6326    9.5759    0.7557 N   0  0  0  0  0  0  0  0  0  0  0  0
  -16.8971    9.3584    0.5229 N   0  0  0  0  0  0  0  0  0  0  0  0
  -21.0859    7.6905   -0.5478 O   0  0  0  0  0  0  0  0  0  0  0  0
  -22.0180    5.1262   -1.0257 O   0  0  0  0  0  0  0  0  0  0  0  0
  -19.2271    7.3779    1.1146 O   0  0  0  0  0  0  0  0  0  0  0  0
  -18.9564    9.9690   -2.2208 O   0  0  0  0  0  0  0  0  0  0  0  0
  -21.7146   10.2043   -0.4819 S   0  0  0  0  0  0  0  0  0  0  0  0
  1  2  2  0
 19  1  1  0
  1 21  1  0
  2  3  1  0
  3 20  2  0
  4 20  1  0
 21  4  2  0
 22  4  1  6
  5 13  1  0
 17  5  1  0
  5 30  1  6
  6  7  1  6
  8  7  2  0
 10  7  1  0
  9  8  1  0
 12  9  2  0
 11 10  2  0
 12 11  1  0
 31 12  1  0
 13 27  1  0
 13 31  1  1
 14 15  1  0
 16 14  1  0
 14 27  1  1
 15 28  1  6
 17 16  1  0
 16 29  1  1
 17 24  1  1
 18 19  2  0
 18 24  1  0
 19 25  1  0
 20 23  1  0
 24 26  1  0
 25 26  2  0
M  END
$$$$
