
     RDKit          3D

 31 34  0  0  0  0  0  0  0  0999 V2000
  -13.7588    8.9333    0.5588 C   0  0  0  0  0  0  0  0  0  0  0  0
  -13.9414    8.8601    1.9227 C   0  0  0  0  0  0  0  0  0  0  0  0
  -12.9486    9.2082    2.8170 C   0  0  0  0  0  0  0  0  0  0  0  0
  -11.5261    9.7255    1.0072 C   0  0  0  0  0  0  0  0  0  0  0  0
  -19.0005    9.0159   -1.1634 C   0  0  1  0  0  0  0  0  0  0  0  0
  -27.0444   10.3871   -0.3020 C   0  0  0  0  0  0  0  0  0  0  0  0
  -25.5829   10.3426   -0.1946 C   0  0  0  0  0  0  0  0  0  0  0  0
  -24.9406   10.8981    0.8845 C   0  0  0  0  0  0  0  0  0  0  0  0
  -23.5619   10.8504    0.9757 C   0  0  0  0  0  0  0  0  0  0  0  0
  -24.8724    9.7218   -1.2175 C   0  0  0  0  0  0  0  0  0  0  0  0
  -23.5051    9.6820   -1.1136 C   0  0  0  0  0  0  0  0  0  0  0  0
  -22.8406   10.2420   -0.0237 C   0  0  0  0  0  0  0  0  0  0  0  0
  -20.4415    8.7754   -0.9274 C   0  0  1  0  0  0  0  0  0  0  0  0
  -20.1488    6.5118   -0.8551 C   0  0  2  0  0  0  0  0  0  0  0  0
  -20.7253    5.2210   -0.3453 C   0  0  0  0  0  0  0  0  0  0  0  0
  -18.6745    6.6486   -0.5255 C   0  0  1  0  0  0  0  0  0  0  0  0
  -18.1801    7.7817   -1.4066 C   0  0  2  0  0  0  0  0  0  0  0  0
  -16.1423    8.3948   -0.0918 C   0  0  0  0  0  0  0  0  0  0  0  0
  -14.8175    8.5620   -0.3867 C   0  0  0  0  0  0  0  0  0  0  0  0
  -11.7201    9.6482    2.3706 C   0  0  0  0  0  0  0  0  0  0  0  0
  -12.5306    9.3732    0.1110 C   0  0  0  0  0  0  0  0  0  0  0  0
  -10.2154   10.1951    0.4839 C   0  0  0  0  0  0  0  0  0  0  0  0
  -10.7478    9.9889    3.2628 F   0  0  0  0  0  0  0  0  0  0  0  0
  -16.7952    8.0548   -1.2261 N   0  0  0  0  0  0  0  0  0  0  0  0
  -14.6996    8.3173   -1.7029 N   0  0  0  0  0  0  0  0  0  0  0  0
  -15.8805    8.0213   -2.1703 N   0  0  0  0  0  0  0  0  0  0  0  0
  -20.7671    7.6245   -0.2766 O   0  0  0  0  0  0  0  0  0  0  0  0
  -22.1039    5.3479   -0.3058 O   0  0  0  0  0  0  0  0  0  0  0  0
  -18.5947    6.9974    0.8207 O   0  0  0  0  0  0  0  0  0  0  0  0
  -18.8856    9.8096   -2.3288 O   0  0  0  0  0  0  0  0  0  0  0  0
  -21.0620   10.1745    0.0832 S   0  0  0  0  0  0  0  0  0  0  0  0
  1  2  2  0
 19  1  1  0
  1 21  1  0
  2  3  1  0
  3 20  2  0
  4 20  1  0
 21  4  2  0
 22  4  1  6
  5 13  1  0
 17  5  1  0
  5 30  1  6
  6  7  1  6
  8  7  2  0
 10  7  1  0
  9  8  1  0
 12  9  2  0
 11 10  2  0
 12 11  1  0
 31 12  1  0
 13 27  1  0
 13 31  1  1
 14 15  1  0
 16 14  1  0
 14 27  1  1
 15 28  1  6
 17 16  1  0
 16 29  1  1
 17 24  1  1
 18 19  2  0
 18 24  1  0
 19 25  1  0
 20 23  1  0
 24 26  1  0
 25 26  2  0
M  END
$$$$
