
     RDKit          3D

 31 34  0  0  0  0  0  0  0  0999 V2000
  -13.6593    9.0965   -0.2862 C   0  0  0  0  0  0  0  0  0  0  0  0
  -13.0202    7.8765   -0.2438 C   0  0  0  0  0  0  0  0  0  0  0  0
  -11.6637    7.7649   -0.0111 C   0  0  0  0  0  0  0  0  0  0  0  0
  -11.5174   10.1142    0.1500 C   0  0  0  0  0  0  0  0  0  0  0  0
  -19.4926    8.9242   -1.6356 C   0  0  1  0  0  0  0  0  0  0  0  0
  -27.4353    8.4269   -3.4225 C   0  0  0  0  0  0  0  0  0  0  0  0
  -26.1064    8.7970   -2.9262 C   0  0  0  0  0  0  0  0  0  0  0  0
  -25.8758   10.0434   -2.3982 C   0  0  0  0  0  0  0  0  0  0  0  0
  -24.6187   10.3820   -1.9330 C   0  0  0  0  0  0  0  0  0  0  0  0
  -25.0921    7.8478   -3.0077 C   0  0  0  0  0  0  0  0  0  0  0  0
  -23.8499    8.1976   -2.5423 C   0  0  0  0  0  0  0  0  0  0  0  0
  -23.6023    9.4593   -2.0040 C   0  0  0  0  0  0  0  0  0  0  0  0
  -20.8796    8.4199   -1.5251 C   0  0  1  0  0  0  0  0  0  0  0  0
  -20.2181    6.5837   -0.3396 C   0  0  2  0  0  0  0  0  0  0  0  0
  -20.6676    5.5316    0.6349 C   0  0  0  0  0  0  0  0  0  0  0  0
  -18.9263    7.2499    0.0945 C   0  0  1  0  0  0  0  0  0  0  0  0
  -18.4317    7.9847   -1.1383 C   0  0  2  0  0  0  0  0  0  0  0  0
  -15.9746    8.1712   -0.7078 C   0  0  0  0  0  0  0  0  0  0  0  0
  -15.1011    9.2089   -0.5341 C   0  0  0  0  0  0  0  0  0  0  0  0
  -10.8882    8.8874    0.1902 C   0  0  0  0  0  0  0  0  0  0  0  0
  -12.8849   10.2200   -0.0850 C   0  0  0  0  0  0  0  0  0  0  0  0
  -10.7174   11.3500    0.3621 C   0  0  0  0  0  0  0  0  0  0  0  0
   -9.5503    8.7648    0.4191 F   0  0  0  0  0  0  0  0  0  0  0  0
  -17.2108    8.6798   -0.9116 N   0  0  0  0  0  0  0  0  0  0  0  0
  -15.8356   10.3296   -0.6376 N   0  0  0  0  0  0  0  0  0  0  0  0
  -17.0740    9.9868   -0.8599 N   0  0  0  0  0  0  0  0  0  0  0  0
  -21.1516    7.6179   -0.4589 O   0  0  0  0  0  0  0  0  0  0  0  0
  -21.5435    4.6813   -0.0190 O   0  0  0  0  0  0  0  0  0  0  0  0
  -19.2581    8.1480    1.1063 O   0  0  0  0  0  0  0  0  0  0  0  0
  -19.2253    9.1405   -3.0078 O   0  0  0  0  0  0  0  0  0  0  0  0
  -21.9768    9.8847   -1.4070 S   0  0  0  0  0  0  0  0  0  0  0  0
  1  2  2  0
 19  1  1  0
  1 21  1  0
  2  3  1  0
  3 20  2  0
  4 20  1  0
 21  4  2  0
 22  4  1  6
  5 13  1  0
 17  5  1  0
  5 30  1  6
  6  7  1  6
  8  7  2  0
 10  7  1  0
  9  8  1  0
 12  9  2  0
 11 10  2  0
 12 11  1  0
 31 12  1  0
 13 27  1  0
 13 31  1  1
 14 15  1  0
 16 14  1  0
 14 27  1  1
 15 28  1  6
 17 16  1  0
 16 29  1  1
 17 24  1  1
 18 19  2  0
 18 24  1  0
 19 25  1  0
 20 23  1  0
 24 26  1  0
 25 26  2  0
M  END
$$$$
