
     RDKit          3D

 31 34  0  0  0  0  0  0  0  0999 V2000
  -13.5953    8.6875    0.0049 C   0  0  0  0  0  0  0  0  0  0  0  0
  -12.5798    8.9673   -0.8831 C   0  0  0  0  0  0  0  0  0  0  0  0
  -11.3774    9.5301   -0.4601 C   0  0  0  0  0  0  0  0  0  0  0  0
  -12.2040    9.5423    1.7908 C   0  0  0  0  0  0  0  0  0  0  0  0
  -19.0110    9.1036   -0.4019 C   0  0  1  0  0  0  0  0  0  0  0  0
  -27.1715   10.7775   -1.8425 C   0  0  0  0  0  0  0  0  0  0  0  0
  -25.8111   10.4504   -1.2966 C   0  0  0  0  0  0  0  0  0  0  0  0
  -24.7914   11.3792   -1.3238 C   0  0  0  0  0  0  0  0  0  0  0  0
  -23.5253   11.0715   -0.8124 C   0  0  0  0  0  0  0  0  0  0  0  0
  -25.5603    9.2114   -0.7557 C   0  0  0  0  0  0  0  0  0  0  0  0
  -24.3022    8.9176   -0.2519 C   0  0  0  0  0  0  0  0  0  0  0  0
  -23.2743    9.8310   -0.2707 C   0  0  0  0  0  0  0  0  0  0  0  0
  -20.4459    9.1446   -0.9221 C   0  0  1  0  0  0  0  0  0  0  0  0
  -20.4799    6.8246   -1.2223 C   0  0  2  0  0  0  0  0  0  0  0  0
  -21.5169    6.2560   -0.2790 C   0  0  0  0  0  0  0  0  0  0  0  0
  -19.0751    6.7103   -0.6576 C   0  0  1  0  0  0  0  0  0  0  0  0
  -18.3456    7.9771   -1.1186 C   0  0  2  0  0  0  0  0  0  0  0  0
  -16.0788    8.7182   -0.4216 C   0  0  0  0  0  0  0  0  0  0  0  0
  -14.8444    8.0998   -0.4496 C   0  0  0  0  0  0  0  0  0  0  0  0
  -11.2008    9.8148    0.8879 C   0  0  0  0  0  0  0  0  0  0  0  0
  -13.3710    8.9874    1.3249 C   0  0  0  0  0  0  0  0  0  0  0  0
  -11.9904    9.8561    3.2298 C   0  0  0  0  0  0  0  0  0  0  0  0
  -10.0149   10.3672    1.2842 F   0  0  0  0  0  0  0  0  0  0  0  0
  -16.9464    7.8427   -0.9241 N   0  0  0  0  0  0  0  0  0  0  0  0
  -15.0145    6.8670   -0.9709 N   0  0  0  0  0  0  0  0  0  0  0  0
  -16.2761    6.7246   -1.2508 N   0  0  0  0  0  0  0  0  0  0  0  0
  -20.7695    8.0662   -1.7065 O   0  0  0  0  0  0  0  0  0  0  0  0
  -22.5943    5.7878   -0.9990 O   0  0  0  0  0  0  0  0  0  0  0  0
  -19.1297    6.7417    0.7428 O   0  0  0  0  0  0  0  0  0  0  0  0
  -18.4132   10.3277   -0.5526 O   0  0  0  0  0  0  0  0  0  0  0  0
  -21.6497    9.4804    0.3678 S   0  0  0  0  0  0  0  0  0  0  0  0
  1  2  2  0
 19  1  1  0
  1 21  1  0
  2  3  1  0
  3 20  2  0
  4 20  1  0
 21  4  2  0
  4 22  1  0
  5 13  1  0
 17  5  1  0
  5 30  1  6
  7  6  1  0
  8  7  2  0
 10  7  1  0
  9  8  1  0
 12  9  2  0
 11 10  2  0
 12 11  1  0
 31 12  1  0
 13 27  1  0
 13 31  1  1
 14 15  1  1
 16 14  1  0
 14 27  1  0
 15 28  1  0
 17 16  1  0
 16 29  1  1
 17 24  1  1
 18 19  2  0
 18 24  1  0
 19 25  1  0
 20 23  1  0
 24 26  1  0
 25 26  2  0
M  END
$$$$
