
     RDKit          3D

 31 34  0  0  0  0  0  0  0  0999 V2000
  -13.5492    9.1279   -0.0829 C   0  0  0  0  0  0  0  0  0  0  0  0
  -12.4447    9.7602   -0.6112 C   0  0  0  0  0  0  0  0  0  0  0  0
  -11.2404    9.8205    0.0616 C   0  0  0  0  0  0  0  0  0  0  0  0
  -12.1968    8.6057    1.8437 C   0  0  0  0  0  0  0  0  0  0  0  0
  -19.2264    8.9570   -1.6579 C   0  0  1  0  0  0  0  0  0  0  0  0
  -27.3306    9.3082   -2.3348 C   0  0  0  0  0  0  0  0  0  0  0  0
  -25.9152    9.4708   -1.9892 C   0  0  0  0  0  0  0  0  0  0  0  0
  -24.9725    8.5873   -2.4546 C   0  0  0  0  0  0  0  0  0  0  0  0
  -23.6403    8.7500   -2.1227 C   0  0  0  0  0  0  0  0  0  0  0  0
  -25.5610   10.5446   -1.1782 C   0  0  0  0  0  0  0  0  0  0  0  0
  -24.2356   10.6936   -0.8570 C   0  0  0  0  0  0  0  0  0  0  0  0
  -23.2686    9.8042   -1.3226 C   0  0  0  0  0  0  0  0  0  0  0  0
  -20.6078    8.5228   -1.3523 C   0  0  1  0  0  0  0  0  0  0  0  0
  -19.8934    6.5276   -0.5016 C   0  0  2  0  0  0  0  0  0  0  0  0
  -20.2467    5.3974    0.4238 C   0  0  0  0  0  0  0  0  0  0  0  0
  -18.4992    7.0651   -0.2405 C   0  0  1  0  0  0  0  0  0  0  0  0
  -18.1702    7.9079   -1.4596 C   0  0  2  0  0  0  0  0  0  0  0  0
  -15.8934    8.2711   -0.4893 C   0  0  0  0  0  0  0  0  0  0  0  0
  -14.8265    9.0670   -0.8024 C   0  0  0  0  0  0  0  0  0  0  0  0
  -11.0976    9.2415    1.3051 C   0  0  0  0  0  0  0  0  0  0  0  0
  -13.4078    8.5483    1.1607 C   0  0  0  0  0  0  0  0  0  0  0  0
  -12.0853    7.9682    3.1829 C   0  0  0  0  0  0  0  0  0  0  0  0
   -9.9040    9.3075    1.9596 F   0  0  0  0  0  0  0  0  0  0  0  0
  -16.8792    8.5019   -1.3856 N   0  0  0  0  0  0  0  0  0  0  0  0
  -15.1951    9.7661   -1.8894 N   0  0  0  0  0  0  0  0  0  0  0  0
  -16.4087    9.4122   -2.2099 N   0  0  0  0  0  0  0  0  0  0  0  0
  -20.7520    7.6199   -0.3434 O   0  0  0  0  0  0  0  0  0  0  0  0
  -21.5354    4.9838    0.1302 O   0  0  0  0  0  0  0  0  0  0  0  0
  -18.5818    7.8579    0.9018 O   0  0  0  0  0  0  0  0  0  0  0  0
  -19.1843    9.3145   -3.0259 O   0  0  0  0  0  0  0  0  0  0  0  0
  -21.5534   10.0240   -0.8879 S   0  0  0  0  0  0  0  0  0  0  0  0
  1  2  2  0
 19  1  1  0
  1 21  1  0
  2  3  1  0
  3 20  2  0
  4 20  1  0
 21  4  2  0
 22  4  1  6
  5 13  1  0
 17  5  1  0
  5 30  1  6
  6  7  1  6
  8  7  2  0
 10  7  1  0
  9  8  1  0
 12  9  2  0
 11 10  2  0
 12 11  1  0
 31 12  1  0
 13 27  1  0
 13 31  1  1
 14 15  1  0
 16 14  1  0
 14 27  1  1
 15 28  1  6
 17 16  1  0
 16 29  1  1
 17 24  1  1
 18 19  2  0
 18 24  1  0
 19 25  1  0
 20 23  1  0
 24 26  1  0
 25 26  2  0
M  END
$$$$
