
     RDKit          3D

 31 34  0  0  0  0  0  0  0  0999 V2000
  -13.7896    8.7371   -0.1504 C   0  0  0  0  0  0  0  0  0  0  0  0
  -12.6295    8.6198   -0.8841 C   0  0  0  0  0  0  0  0  0  0  0  0
  -11.3765    8.7750   -0.2947 C   0  0  0  0  0  0  0  0  0  0  0  0
  -12.4459    9.1751    1.8139 C   0  0  0  0  0  0  0  0  0  0  0  0
  -19.4850    8.7000   -0.3876 C   0  0  1  0  0  0  0  0  0  0  0  0
  -26.9626   11.0063    2.3284 C   0  0  0  0  0  0  0  0  0  0  0  0
  -25.7944   10.3530    1.6470 C   0  0  0  0  0  0  0  0  0  0  0  0
  -25.7662   10.1972    0.2766 C   0  0  0  0  0  0  0  0  0  0  0  0
  -24.6750    9.5896   -0.3553 C   0  0  0  0  0  0  0  0  0  0  0  0
  -24.7266    9.8986    2.3844 C   0  0  0  0  0  0  0  0  0  0  0  0
  -23.6508    9.2983    1.7479 C   0  0  0  0  0  0  0  0  0  0  0  0
  -23.6058    9.1348    0.3831 C   0  0  0  0  0  0  0  0  0  0  0  0
  -20.8045    9.4401   -0.5939 C   0  0  1  0  0  0  0  0  0  0  0  0
  -20.4027    9.6655   -2.8877 C   0  0  2  0  0  0  0  0  0  0  0  0
  -21.4680    8.8785   -3.6186 C   0  0  0  0  0  0  0  0  0  0  0  0
  -19.1075    8.8837   -2.7585 C   0  0  1  0  0  0  0  0  0  0  0  0
  -18.5350    9.2659   -1.3889 C   0  0  2  0  0  0  0  0  0  0  0  0
  -16.2177    9.3177   -0.4942 C   0  0  0  0  0  0  0  0  0  0  0  0
  -15.0902    8.5724   -0.7776 C   0  0  0  0  0  0  0  0  0  0  0  0
  -11.2977    9.0542    1.0636 C   0  0  0  0  0  0  0  0  0  0  0  0
  -13.6574    9.0135    1.1871 C   0  0  0  0  0  0  0  0  0  0  0  0
  -12.3350    9.4742    3.2676 C   0  0  0  0  0  0  0  0  0  0  0  0
  -10.0601    9.2036    1.6243 F   0  0  0  0  0  0  0  0  0  0  0  0
  -17.1825    8.8497   -1.2827 N   0  0  0  0  0  0  0  0  0  0  0  0
  -15.4192    7.6772   -1.7320 N   0  0  0  0  0  0  0  0  0  0  0  0
  -16.6733    7.8526   -2.0261 N   0  0  0  0  0  0  0  0  0  0  0  0
  -20.8138   10.2297   -1.7161 O   0  0  0  0  0  0  0  0  0  0  0  0
  -22.2981    9.7409   -4.3010 O   0  0  0  0  0  0  0  0  0  0  0  0
  -19.3904    7.5110   -2.7287 O   0  0  0  0  0  0  0  0  0  0  0  0
  -19.0833    8.7952    0.9193 O   0  0  0  0  0  0  0  0  0  0  0  0
  -22.2385    8.3670   -0.4599 S   0  0  0  0  0  0  0  0  0  0  0  0
  1  2  2  0
 19  1  1  0
  1 21  1  0
  2  3  1  0
  3 20  2  0
  4 20  1  0
 21  4  2  0
  4 22  1  0
  5 13  1  0
 17  5  1  0
  5 30  1  1
  7  6  1  0
  8  7  2  0
 10  7  1  0
  9  8  1  0
 12  9  2  0
 11 10  2  0
 12 11  1  0
 31 12  1  0
 13 27  1  0
 13 31  1  6
 14 15  1  1
 16 14  1  0
 14 27  1  0
 15 28  1  0
 17 16  1  0
 16 29  1  1
 17 24  1  1
 18 19  2  0
 18 24  1  0
 19 25  1  0
 20 23  1  0
 24 26  1  0
 25 26  2  0
M  END
$$$$
