
     RDKit          3D

 31 34  0  0  0  0  0  0  0  0999 V2000
  -13.8413    8.9913   -0.3290 C   0  0  0  0  0  0  0  0  0  0  0  0
  -12.9235    9.4400   -1.2537 C   0  0  0  0  0  0  0  0  0  0  0  0
  -11.5630    9.2903   -1.0712 C   0  0  0  0  0  0  0  0  0  0  0  0
  -11.9762    8.2240    0.9923 C   0  0  0  0  0  0  0  0  0  0  0  0
  -19.7502    9.0466   -1.3472 C   0  0  1  0  0  0  0  0  0  0  0  0
  -27.8649    8.7503   -2.2871 C   0  0  0  0  0  0  0  0  0  0  0  0
  -26.4805    9.0699   -1.9256 C   0  0  0  0  0  0  0  0  0  0  0  0
  -26.0535   10.3736   -1.8647 C   0  0  0  0  0  0  0  0  0  0  0  0
  -24.7457   10.6638   -1.5226 C   0  0  0  0  0  0  0  0  0  0  0  0
  -25.6184    8.0135   -1.6477 C   0  0  0  0  0  0  0  0  0  0  0  0
  -24.3238    8.3164   -1.3097 C   0  0  0  0  0  0  0  0  0  0  0  0
  -23.8774    9.6352   -1.2442 C   0  0  0  0  0  0  0  0  0  0  0  0
  -21.1329    8.5461   -1.1803 C   0  0  1  0  0  0  0  0  0  0  0  0
  -20.4118    6.5775   -0.2750 C   0  0  2  0  0  0  0  0  0  0  0  0
  -20.7999    5.4229    0.6051 C   0  0  0  0  0  0  0  0  0  0  0  0
  -19.0762    7.1760    0.1238 C   0  0  1  0  0  0  0  0  0  0  0  0
  -18.6703    8.0454   -1.0527 C   0  0  2  0  0  0  0  0  0  0  0  0
  -16.1963    8.1469   -0.6967 C   0  0  0  0  0  0  0  0  0  0  0  0
  -15.2859    9.1532   -0.5283 C   0  0  0  0  0  0  0  0  0  0  0  0
  -11.0664    8.6772    0.0599 C   0  0  0  0  0  0  0  0  0  0  0  0
  -13.3461    8.3778    0.8027 C   0  0  0  0  0  0  0  0  0  0  0  0
  -11.4824    7.5569    2.2266 C   0  0  0  0  0  0  0  0  0  0  0  0
   -9.7215    8.5352    0.2289 F   0  0  0  0  0  0  0  0  0  0  0  0
  -17.4218    8.6976   -0.8498 N   0  0  0  0  0  0  0  0  0  0  0  0
  -15.9879   10.2979   -0.5839 N   0  0  0  0  0  0  0  0  0  0  0  0
  -17.2427    9.9982   -0.7740 N   0  0  0  0  0  0  0  0  0  0  0  0
  -21.3319    7.6274   -0.1952 O   0  0  0  0  0  0  0  0  0  0  0  0
  -20.7131    4.2601   -0.1422 O   0  0  0  0  0  0  0  0  0  0  0  0
  -19.3066    7.9526    1.2570 O   0  0  0  0  0  0  0  0  0  0  0  0
  -19.5922    9.4196   -2.7026 O   0  0  0  0  0  0  0  0  0  0  0  0
  -22.1884    9.9974   -0.8019 S   0  0  0  0  0  0  0  0  0  0  0  0
  1  2  2  0
 19  1  1  0
  1 21  1  0
  2  3  1  0
  3 20  2  0
  4 20  1  0
 21  4  2  0
 22  4  1  6
  5 13  1  0
 17  5  1  0
  5 30  1  6
  6  7  1  6
  8  7  2  0
 10  7  1  0
  9  8  1  0
 12  9  2  0
 11 10  2  0
 12 11  1  0
 31 12  1  0
 13 27  1  0
 13 31  1  1
 14 15  1  0
 16 14  1  0
 14 27  1  1
 15 28  1  6
 17 16  1  0
 16 29  1  1
 17 24  1  1
 18 19  2  0
 18 24  1  0
 19 25  1  0
 20 23  1  0
 24 26  1  0
 25 26  2  0
M  END
$$$$
