
     RDKit          3D

 31 34  0  0  0  0  0  0  0  0999 V2000
  -13.4514    8.9255    0.3454 C   0  0  0  0  0  0  0  0  0  0  0  0
  -12.4493    8.1939    0.9440 C   0  0  0  0  0  0  0  0  0  0  0  0
  -11.1123    8.5737    0.8452 C   0  0  0  0  0  0  0  0  0  0  0  0
  -11.7724   10.4608   -0.4789 C   0  0  0  0  0  0  0  0  0  0  0  0
  -19.1704    9.2209   -0.2636 C   0  0  1  0  0  0  0  0  0  0  0  0
  -26.5212   10.2856   -4.2056 C   0  0  0  0  0  0  0  0  0  0  0  0
  -25.3961   10.0508   -3.2386 C   0  0  0  0  0  0  0  0  0  0  0  0
  -24.1229    9.7630   -3.6847 C   0  0  0  0  0  0  0  0  0  0  0  0
  -23.0764    9.5467   -2.7806 C   0  0  0  0  0  0  0  0  0  0  0  0
  -25.6200   10.1217   -1.8838 C   0  0  0  0  0  0  0  0  0  0  0  0
  -24.5758    9.9057   -0.9973 C   0  0  0  0  0  0  0  0  0  0  0  0
  -23.3005    9.6178   -1.4241 C   0  0  0  0  0  0  0  0  0  0  0  0
  -20.3915    9.0169   -1.1573 C   0  0  1  0  0  0  0  0  0  0  0  0
  -20.1213    6.6932   -1.1187 C   0  0  2  0  0  0  0  0  0  0  0  0
  -21.3288    6.1033   -0.4240 C   0  0  0  0  0  0  0  0  0  0  0  0
  -18.9350    6.8261   -0.1805 C   0  0  1  0  0  0  0  0  0  0  0  0
  -18.2247    8.1176   -0.6011 C   0  0  2  0  0  0  0  0  0  0  0  0
  -15.8109    8.6997   -0.5106 C   0  0  0  0  0  0  0  0  0  0  0  0
  -14.8422    8.5185    0.4567 C   0  0  0  0  0  0  0  0  0  0  0  0
  -10.7848    9.7163    0.1264 C   0  0  0  0  0  0  0  0  0  0  0  0
  -13.0755   10.0454   -0.3527 C   0  0  0  0  0  0  0  0  0  0  0  0
  -11.3960   11.6812   -1.2431 C   0  0  0  0  0  0  0  0  0  0  0  0
   -9.4681   10.0730    0.0400 F   0  0  0  0  0  0  0  0  0  0  0  0
  -16.9349    8.1887   -0.0135 N   0  0  0  0  0  0  0  0  0  0  0  0
  -15.4215    7.9014    1.5074 N   0  0  0  0  0  0  0  0  0  0  0  0
  -16.6735    7.7094    1.2145 N   0  0  0  0  0  0  0  0  0  0  0  0
  -20.3732    7.8249   -1.8369 O   0  0  0  0  0  0  0  0  0  0  0  0
  -22.1708    5.5359   -1.3554 O   0  0  0  0  0  0  0  0  0  0  0  0
  -19.3940    7.0060    1.1318 O   0  0  0  0  0  0  0  0  0  0  0  0
  -18.6711   10.4878   -0.4191 O   0  0  0  0  0  0  0  0  0  0  0  0
  -21.9421    9.3350   -0.3086 S   0  0  0  0  0  0  0  0  0  0  0  0
  1  2  2  0
 19  1  1  0
  1 21  1  0
  2  3  1  0
  3 20  2  0
  4 20  1  0
 21  4  2  0
  4 22  1  0
  5 13  1  0
 17  5  1  0
  5 30  1  6
  7  6  1  0
  8  7  2  0
 10  7  1  0
  9  8  1  0
 12  9  2  0
 11 10  2  0
 12 11  1  0
 31 12  1  0
 13 27  1  0
 13 31  1  1
 14 15  1  1
 16 14  1  0
 14 27  1  0
 15 28  1  0
 17 16  1  0
 16 29  1  1
 17 24  1  1
 18 19  2  0
 18 24  1  0
 19 25  1  0
 20 23  1  0
 24 26  1  0
 25 26  2  0
M  END
$$$$
