
     RDKit          3D

 31 34  0  0  0  0  0  0  0  0999 V2000
  -13.9198    8.9991    0.4794 C   0  0  0  0  0  0  0  0  0  0  0  0
  -14.1414    9.2397    1.8180 C   0  0  0  0  0  0  0  0  0  0  0  0
  -13.1189    9.5728    2.6841 C   0  0  0  0  0  0  0  0  0  0  0  0
  -11.5860    9.4396    0.8956 C   0  0  0  0  0  0  0  0  0  0  0  0
  -19.2149    9.0801   -0.8454 C   0  0  1  0  0  0  0  0  0  0  0  0
  -26.9973   11.2425   -0.1006 C   0  0  0  0  0  0  0  0  0  0  0  0
  -25.5827   10.9180    0.1065 C   0  0  0  0  0  0  0  0  0  0  0  0
  -25.2141    9.7617    0.7488 C   0  0  0  0  0  0  0  0  0  0  0  0
  -23.8771    9.4654    0.9388 C   0  0  0  0  0  0  0  0  0  0  0  0
  -24.6313   11.8163   -0.3672 C   0  0  0  0  0  0  0  0  0  0  0  0
  -23.3087   11.5093   -0.1716 C   0  0  0  0  0  0  0  0  0  0  0  0
  -22.9208   10.3390    0.4787 C   0  0  0  0  0  0  0  0  0  0  0  0
  -20.6385    8.7848   -0.5692 C   0  0  1  0  0  0  0  0  0  0  0  0
  -20.3435    6.5498   -0.9334 C   0  0  2  0  0  0  0  0  0  0  0  0
  -20.8880    5.1811   -0.6354 C   0  0  0  0  0  0  0  0  0  0  0  0
  -18.8514    6.6395   -0.6759 C   0  0  1  0  0  0  0  0  0  0  0  0
  -18.4123    7.9206   -1.3620 C   0  0  2  0  0  0  0  0  0  0  0  0
  -16.3290    8.5000   -0.1045 C   0  0  0  0  0  0  0  0  0  0  0  0
  -15.0103    8.6453   -0.4362 C   0  0  0  0  0  0  0  0  0  0  0  0
  -11.8197    9.6783    2.2339 C   0  0  0  0  0  0  0  0  0  0  0  0
  -12.6207    9.1042    0.0278 C   0  0  0  0  0  0  0  0  0  0  0  0
  -10.1988    9.5427    0.3691 C   0  0  0  0  0  0  0  0  0  0  0  0
  -10.8187   10.0078    3.0982 F   0  0  0  0  0  0  0  0  0  0  0  0
  -17.0186    8.1709   -1.2201 N   0  0  0  0  0  0  0  0  0  0  0  0
  -14.9330    8.3986   -1.7550 N   0  0  0  0  0  0  0  0  0  0  0  0
  -16.1311    8.1222   -2.1893 N   0  0  0  0  0  0  0  0  0  0  0  0
  -20.9235    7.5304   -0.1227 O   0  0  0  0  0  0  0  0  0  0  0  0
  -22.2665    5.2267   -0.7596 O   0  0  0  0  0  0  0  0  0  0  0  0
  -18.6871    6.7357    0.7040 O   0  0  0  0  0  0  0  0  0  0  0  0
  -19.1727   10.0757   -1.8495 O   0  0  0  0  0  0  0  0  0  0  0  0
  -21.1933    9.9674    0.7181 S   0  0  0  0  0  0  0  0  0  0  0  0
  1  2  2  0
 19  1  1  0
  1 21  1  0
  2  3  1  0
  3 20  2  0
  4 20  1  0
 21  4  2  0
 22  4  1  6
  5 13  1  0
 17  5  1  0
  5 30  1  6
  6  7  1  6
  8  7  2  0
 10  7  1  0
  9  8  1  0
 12  9  2  0
 11 10  2  0
 12 11  1  0
 31 12  1  0
 13 27  1  0
 13 31  1  1
 14 15  1  0
 16 14  1  0
 14 27  1  1
 15 28  1  6
 17 16  1  0
 16 29  1  1
 17 24  1  1
 18 19  2  0
 18 24  1  0
 19 25  1  0
 20 23  1  0
 24 26  1  0
 25 26  2  0
M  END
$$$$
