
     RDKit          3D

 31 34  0  0  0  0  0  0  0  0999 V2000
  -13.8825    8.4957   -0.4420 C   0  0  0  0  0  0  0  0  0  0  0  0
  -12.5842    8.4906   -0.9039 C   0  0  0  0  0  0  0  0  0  0  0  0
  -11.5156    8.8281   -0.0971 C   0  0  0  0  0  0  0  0  0  0  0  0
  -13.0078    9.1964    1.6928 C   0  0  0  0  0  0  0  0  0  0  0  0
  -19.2119    8.7503   -1.7744 C   0  0  1  0  0  0  0  0  0  0  0  0
  -26.9193   11.2469   -1.2950 C   0  0  0  0  0  0  0  0  0  0  0  0
  -25.5037   10.9476   -1.0585 C   0  0  0  0  0  0  0  0  0  0  0  0
  -24.8361   11.5045    0.0044 C   0  0  0  0  0  0  0  0  0  0  0  0
  -23.5011   11.2155    0.2182 C   0  0  0  0  0  0  0  0  0  0  0  0
  -24.8628   10.0850   -1.9426 C   0  0  0  0  0  0  0  0  0  0  0  0
  -23.5383    9.8073   -1.7181 C   0  0  0  0  0  0  0  0  0  0  0  0
  -22.8488   10.3657   -0.6430 C   0  0  0  0  0  0  0  0  0  0  0  0
  -20.6422    8.5714   -1.4396 C   0  0  1  0  0  0  0  0  0  0  0  0
  -20.4472    6.2964   -1.4054 C   0  0  2  0  0  0  0  0  0  0  0  0
  -21.0442    5.0270   -0.8662 C   0  0  0  0  0  0  0  0  0  0  0  0
  -18.9489    6.3642   -1.1792 C   0  0  1  0  0  0  0  0  0  0  0  0
  -18.4668    7.4837   -2.0842 C   0  0  2  0  0  0  0  0  0  0  0  0
  -16.3247    8.0511   -0.9236 C   0  0  0  0  0  0  0  0  0  0  0  0
  -15.0140    8.1362   -1.3040 C   0  0  0  0  0  0  0  0  0  0  0  0
  -11.7123    9.1878    1.2197 C   0  0  0  0  0  0  0  0  0  0  0  0
  -14.0805    8.8553    0.8748 C   0  0  0  0  0  0  0  0  0  0  0  0
  -13.2637    9.5785    3.1073 C   0  0  0  0  0  0  0  0  0  0  0  0
  -10.6497    9.5190    2.0064 F   0  0  0  0  0  0  0  0  0  0  0  0
  -17.0618    7.6933   -1.9993 N   0  0  0  0  0  0  0  0  0  0  0  0
  -14.9891    7.8253   -2.6113 N   0  0  0  0  0  0  0  0  0  0  0  0
  -16.2095    7.5692   -2.9931 N   0  0  0  0  0  0  0  0  0  0  0  0
  -20.9730    7.4292   -0.7764 O   0  0  0  0  0  0  0  0  0  0  0  0
  -20.1035    4.4170   -0.0533 O   0  0  0  0  0  0  0  0  0  0  0  0
  -18.7597    6.6946    0.1607 O   0  0  0  0  0  0  0  0  0  0  0  0
  -19.1432    9.5507   -2.9389 O   0  0  0  0  0  0  0  0  0  0  0  0
  -21.1271    9.9856   -0.3773 S   0  0  0  0  0  0  0  0  0  0  0  0
  1  2  2  0
 19  1  1  0
  1 21  1  0
  2  3  1  0
  3 20  2  0
  4 20  1  0
 21  4  2  0
 22  4  1  6
  5 13  1  0
 17  5  1  0
  5 30  1  6
  6  7  1  6
  8  7  2  0
 10  7  1  0
  9  8  1  0
 12  9  2  0
 11 10  2  0
 12 11  1  0
 31 12  1  0
 13 27  1  0
 13 31  1  1
 14 15  1  0
 16 14  1  0
 14 27  1  1
 15 28  1  6
 17 16  1  0
 16 29  1  1
 17 24  1  1
 18 19  2  0
 18 24  1  0
 19 25  1  0
 20 23  1  0
 24 26  1  0
 25 26  2  0
M  END
$$$$
