
     RDKit          3D

 31 34  0  0  0  0  0  0  0  0999 V2000
  -13.2417    9.0995    0.2470 C   0  0  0  0  0  0  0  0  0  0  0  0
  -12.4187    8.9431    1.3411 C   0  0  0  0  0  0  0  0  0  0  0  0
  -11.0438    9.0255    1.2445 C   0  0  0  0  0  0  0  0  0  0  0  0
  -11.2497    9.4293   -1.0708 C   0  0  0  0  0  0  0  0  0  0  0  0
  -18.9674    9.1252   -0.9340 C   0  0  1  0  0  0  0  0  0  0  0  0
  -27.0279    9.1482   -2.6054 C   0  0  0  0  0  0  0  0  0  0  0  0
  -25.6647    9.3954   -2.1260 C   0  0  0  0  0  0  0  0  0  0  0  0
  -25.4378    9.8105   -0.8369 C   0  0  0  0  0  0  0  0  0  0  0  0
  -24.1481   10.0407   -0.3952 C   0  0  0  0  0  0  0  0  0  0  0  0
  -24.6140    9.1961   -3.0165 C   0  0  0  0  0  0  0  0  0  0  0  0
  -23.3398    9.4284   -2.5644 C   0  0  0  0  0  0  0  0  0  0  0  0
  -23.0956    9.8500   -1.2584 C   0  0  0  0  0  0  0  0  0  0  0  0
  -20.3723    8.7122   -1.1475 C   0  0  1  0  0  0  0  0  0  0  0  0
  -19.9313    6.5573   -0.5340 C   0  0  2  0  0  0  0  0  0  0  0  0
  -20.5382    5.2907    0.0010 C   0  0  0  0  0  0  0  0  0  0  0  0
  -18.6868    6.9626    0.2327 C   0  0  1  0  0  0  0  0  0  0  0  0
  -18.0115    8.0047   -0.6405 C   0  0  2  0  0  0  0  0  0  0  0  0
  -15.5389    8.3599   -0.5081 C   0  0  0  0  0  0  0  0  0  0  0  0
  -14.7022    9.0108    0.3558 C   0  0  0  0  0  0  0  0  0  0  0  0
  -10.4356    9.2710    0.0313 C   0  0  0  0  0  0  0  0  0  0  0  0
  -12.6347    9.3451   -0.9670 C   0  0  0  0  0  0  0  0  0  0  0  0
  -10.6340    9.6955   -2.3984 C   0  0  0  0  0  0  0  0  0  0  0  0
   -9.0775    9.3501   -0.0518 F   0  0  0  0  0  0  0  0  0  0  0  0
  -16.8091    8.5065   -0.0681 N   0  0  0  0  0  0  0  0  0  0  0  0
  -15.4924    9.5399    1.3054 N   0  0  0  0  0  0  0  0  0  0  0  0
  -16.7278    9.2264    1.0294 N   0  0  0  0  0  0  0  0  0  0  0  0
  -20.8074    7.6418   -0.4270 O   0  0  0  0  0  0  0  0  0  0  0  0
  -21.0060    4.5482   -1.0704 O   0  0  0  0  0  0  0  0  0  0  0  0
  -19.1191    7.5258    1.4311 O   0  0  0  0  0  0  0  0  0  0  0  0
  -18.5158    9.7349   -2.1280 O   0  0  0  0  0  0  0  0  0  0  0  0
  -21.4279   10.1437   -0.6999 S   0  0  0  0  0  0  0  0  0  0  0  0
  1  2  2  0
 19  1  1  0
  1 21  1  0
  2  3  1  0
  3 20  2  0
  4 20  1  0
 21  4  2  0
 22  4  1  6
  5 13  1  0
 17  5  1  0
  5 30  1  6
  6  7  1  6
  8  7  2  0
 10  7  1  0
  9  8  1  0
 12  9  2  0
 11 10  2  0
 12 11  1  0
 31 12  1  0
 13 27  1  0
 13 31  1  1
 14 15  1  0
 16 14  1  0
 14 27  1  1
 15 28  1  6
 17 16  1  0
 16 29  1  1
 17 24  1  1
 18 19  2  0
 18 24  1  0
 19 25  1  0
 20 23  1  0
 24 26  1  0
 25 26  2  0
M  END
$$$$
