
     RDKit          3D

 31 34  0  0  0  0  0  0  0  0999 V2000
  -13.8080    8.9316    0.0974 C   0  0  0  0  0  0  0  0  0  0  0  0
  -13.8037    8.5771    1.4286 C   0  0  0  0  0  0  0  0  0  0  0  0
  -12.6949    8.8084    2.2400 C   0  0  0  0  0  0  0  0  0  0  0  0
  -11.5544    9.7720    0.3637 C   0  0  0  0  0  0  0  0  0  0  0  0
  -19.2688    9.2408   -0.7900 C   0  0  1  0  0  0  0  0  0  0  0  0
  -27.5842   10.2172   -1.6878 C   0  0  0  0  0  0  0  0  0  0  0  0
  -26.1751    9.9514   -1.2408 C   0  0  0  0  0  0  0  0  0  0  0  0
  -25.6438   10.5949   -0.1423 C   0  0  0  0  0  0  0  0  0  0  0  0
  -24.3308   10.3434    0.2724 C   0  0  0  0  0  0  0  0  0  0  0  0
  -25.3883    9.0545   -1.9241 C   0  0  0  0  0  0  0  0  0  0  0  0
  -24.0890    8.8130   -1.5042 C   0  0  0  0  0  0  0  0  0  0  0  0
  -23.5431    9.4452   -0.4117 C   0  0  0  0  0  0  0  0  0  0  0  0
  -20.7101    8.9470   -1.1996 C   0  0  1  0  0  0  0  0  0  0  0  0
  -20.2858    6.6489   -1.3119 C   0  0  2  0  0  0  0  0  0  0  0  0
  -21.1263    5.9757   -0.2493 C   0  0  0  0  0  0  0  0  0  0  0  0
  -18.8564    6.8694   -0.8498 C   0  0  1  0  0  0  0  0  0  0  0  0
  -18.4306    8.2075   -1.4645 C   0  0  2  0  0  0  0  0  0  0  0  0
  -16.2766    8.6081   -0.2927 C   0  0  0  0  0  0  0  0  0  0  0  0
  -14.9716    8.6851   -0.7378 C   0  0  0  0  0  0  0  0  0  0  0  0
  -11.5693    9.4103    1.6922 C   0  0  0  0  0  0  0  0  0  0  0  0
  -12.6720    9.5231   -0.3951 C   0  0  0  0  0  0  0  0  0  0  0  0
  -10.3366   10.4159   -0.1996 C   0  0  0  0  0  0  0  0  0  0  0  0
  -10.4910    9.6288    2.5033 F   0  0  0  0  0  0  0  0  0  0  0  0
  -17.0245    8.3728   -1.3684 N   0  0  0  0  0  0  0  0  0  0  0  0
  -14.9812    8.4921   -2.0731 N   0  0  0  0  0  0  0  0  0  0  0  0
  -16.2148    8.3062   -2.4389 N   0  0  0  0  0  0  0  0  0  0  0  0
  -20.8520    7.7575   -1.8690 O   0  0  0  0  0  0  0  0  0  0  0  0
  -22.0976    5.2012   -0.8455 O   0  0  0  0  0  0  0  0  0  0  0  0
  -18.8328    7.0195    0.5438 O   0  0  0  0  0  0  0  0  0  0  0  0
  -18.9445   10.5399   -1.0827 O   0  0  0  0  0  0  0  0  0  0  0  0
  -21.8783    9.1552    0.1486 S   0  0  0  0  0  0  0  0  0  0  0  0
  1  2  2  0
 19  1  1  0
  1 21  1  0
  2  3  1  0
  3 20  2  0
  4 20  1  0
 21  4  2  0
  4 22  1  0
  5 13  1  0
 17  5  1  0
  5 30  1  6
  7  6  1  0
  8  7  2  0
 10  7  1  0
  9  8  1  0
 12  9  2  0
 11 10  2  0
 12 11  1  0
 31 12  1  0
 13 27  1  0
 13 31  1  1
 14 15  1  1
 16 14  1  0
 14 27  1  0
 15 28  1  0
 17 16  1  0
 16 29  1  1
 17 24  1  1
 18 19  2  0
 18 24  1  0
 19 25  1  0
 20 23  1  0
 24 26  1  0
 25 26  2  0
M  END
$$$$
