
     RDKit          3D

 31 34  0  0  0  0  0  0  0  0999 V2000
  -13.5690    9.5473   -0.4115 C   0  0  0  0  0  0  0  0  0  0  0  0
  -12.7575   10.3927   -1.1365 C   0  0  0  0  0  0  0  0  0  0  0  0
  -11.3810   10.3594   -1.0316 C   0  0  0  0  0  0  0  0  0  0  0  0
  -11.5624    8.6144    0.5458 C   0  0  0  0  0  0  0  0  0  0  0  0
  -19.4673    9.1674   -1.3731 C   0  0  1  0  0  0  0  0  0  0  0  0
  -27.5780    8.1815   -2.1622 C   0  0  0  0  0  0  0  0  0  0  0  0
  -26.2054    8.5834   -1.8401 C   0  0  0  0  0  0  0  0  0  0  0  0
  -25.1339    7.8740   -2.3243 C   0  0  0  0  0  0  0  0  0  0  0  0
  -23.8435    8.2618   -2.0144 C   0  0  0  0  0  0  0  0  0  0  0  0
  -26.0258    9.7017   -1.0317 C   0  0  0  0  0  0  0  0  0  0  0  0
  -24.7400   10.0747   -0.7325 C   0  0  0  0  0  0  0  0  0  0  0  0
  -23.6435    9.3636   -1.2173 C   0  0  0  0  0  0  0  0  0  0  0  0
  -20.8063    8.5451   -1.2733 C   0  0  1  0  0  0  0  0  0  0  0  0
  -19.9389    6.5787   -0.5013 C   0  0  2  0  0  0  0  0  0  0  0  0
  -20.2437    5.3331    0.2823 C   0  0  0  0  0  0  0  0  0  0  0  0
  -18.6636    7.2518   -0.0309 C   0  0  1  0  0  0  0  0  0  0  0  0
  -18.3130    8.2378   -1.1307 C   0  0  2  0  0  0  0  0  0  0  0  0
  -15.8456    8.5369   -0.8480 C   0  0  0  0  0  0  0  0  0  0  0  0
  -15.0312    9.5874   -0.5270 C   0  0  0  0  0  0  0  0  0  0  0  0
  -10.7598    9.4655   -0.1849 C   0  0  0  0  0  0  0  0  0  0  0  0
  -12.9490    8.6528    0.4358 C   0  0  0  0  0  0  0  0  0  0  0  0
  -10.9324    7.6349    1.4710 C   0  0  0  0  0  0  0  0  0  0  0  0
   -9.4004    9.4419   -0.0898 F   0  0  0  0  0  0  0  0  0  0  0  0
  -17.1259    8.9720   -0.8534 N   0  0  0  0  0  0  0  0  0  0  0  0
  -15.8446   10.6415   -0.3443 N   0  0  0  0  0  0  0  0  0  0  0  0
  -17.0722   10.2488   -0.5433 N   0  0  0  0  0  0  0  0  0  0  0  0
  -20.9437    7.5413   -0.3636 O   0  0  0  0  0  0  0  0  0  0  0  0
  -21.3366    4.7121   -0.2990 O   0  0  0  0  0  0  0  0  0  0  0  0
  -18.9745    7.9192    1.1516 O   0  0  0  0  0  0  0  0  0  0  0  0
  -19.3201    9.6534   -2.6935 O   0  0  0  0  0  0  0  0  0  0  0  0
  -21.9837    9.8730   -0.8110 S   0  0  0  0  0  0  0  0  0  0  0  0
  1  2  2  0
 19  1  1  0
  1 21  1  0
  2  3  1  0
  3 20  2  0
  4 20  1  0
 21  4  2  0
 22  4  1  6
  5 13  1  0
 17  5  1  0
  5 30  1  6
  6  7  1  6
  8  7  2  0
 10  7  1  0
  9  8  1  0
 12  9  2  0
 11 10  2  0
 12 11  1  0
 31 12  1  0
 13 27  1  0
 13 31  1  1
 14 15  1  0
 16 14  1  0
 14 27  1  1
 15 28  1  6
 17 16  1  0
 16 29  1  1
 17 24  1  1
 18 19  2  0
 18 24  1  0
 19 25  1  0
 20 23  1  0
 24 26  1  0
 25 26  2  0
M  END
$$$$
