
     RDKit          3D

 31 34  0  0  0  0  0  0  0  0999 V2000
  -13.5430    8.2671    0.3800 C   0  0  0  0  0  0  0  0  0  0  0  0
  -13.5953    7.6487    1.6099 C   0  0  0  0  0  0  0  0  0  0  0  0
  -12.5044    7.6588    2.4768 C   0  0  0  0  0  0  0  0  0  0  0  0
  -11.2673    8.9317    0.8646 C   0  0  0  0  0  0  0  0  0  0  0  0
  -18.9212    9.2971   -1.0663 C   0  0  1  0  0  0  0  0  0  0  0  0
  -27.2857    9.3902   -2.4405 C   0  0  0  0  0  0  0  0  0  0  0  0
  -25.8756    9.4538   -1.9269 C   0  0  0  0  0  0  0  0  0  0  0  0
  -25.5275    8.8649   -0.7290 C   0  0  0  0  0  0  0  0  0  0  0  0
  -24.2121    8.9245   -0.2544 C   0  0  0  0  0  0  0  0  0  0  0  0
  -24.9030   10.1035   -2.6496 C   0  0  0  0  0  0  0  0  0  0  0  0
  -23.6030   10.1563   -2.1698 C   0  0  0  0  0  0  0  0  0  0  0  0
  -23.2382    9.5749   -0.9781 C   0  0  0  0  0  0  0  0  0  0  0  0
  -20.3566    9.0118   -1.5017 C   0  0  1  0  0  0  0  0  0  0  0  0
  -20.1263    6.7339   -1.0203 C   0  0  2  0  0  0  0  0  0  0  0  0
  -21.0812    6.4051    0.1061 C   0  0  0  0  0  0  0  0  0  0  0  0
  -18.7120    6.9621   -0.5173 C   0  0  1  0  0  0  0  0  0  0  0  0
  -18.1379    8.0731   -1.4037 C   0  0  2  0  0  0  0  0  0  0  0  0
  -16.0081    8.1308   -0.1254 C   0  0  0  0  0  0  0  0  0  0  0  0
  -14.6884    8.2495   -0.5144 C   0  0  0  0  0  0  0  0  0  0  0  0
  -11.3388    8.3077    2.0900 C   0  0  0  0  0  0  0  0  0  0  0  0
  -12.3692    8.8940    0.0455 C   0  0  0  0  0  0  0  0  0  0  0  0
  -10.0073    9.6206    0.4734 C   0  0  0  0  0  0  0  0  0  0  0  0
  -10.2790    8.3068    2.9531 F   0  0  0  0  0  0  0  0  0  0  0  0
  -16.7306    8.1590   -1.2430 N   0  0  0  0  0  0  0  0  0  0  0  0
  -14.6641    8.3452   -1.8600 N   0  0  0  0  0  0  0  0  0  0  0  0
  -15.8916    8.2897   -2.2846 N   0  0  0  0  0  0  0  0  0  0  0  0
  -20.5619    7.7064   -1.8714 O   0  0  0  0  0  0  0  0  0  0  0  0
  -21.6196    5.1522   -0.0907 O   0  0  0  0  0  0  0  0  0  0  0  0
  -18.7554    7.4510    0.7958 O   0  0  0  0  0  0  0  0  0  0  0  0
  -18.4699   10.4573   -1.6397 O   0  0  0  0  0  0  0  0  0  0  0  0
  -21.5777    9.6283   -0.3379 S   0  0  0  0  0  0  0  0  0  0  0  0
  1  2  2  0
 19  1  1  0
  1 21  1  0
  2  3  1  0
  3 20  2  0
  4 20  1  0
 21  4  2  0
  4 22  1  0
  5 13  1  0
 17  5  1  0
  5 30  1  6
  7  6  1  0
  8  7  2  0
 10  7  1  0
  9  8  1  0
 12  9  2  0
 11 10  2  0
 12 11  1  0
 31 12  1  0
 13 27  1  0
 13 31  1  1
 14 15  1  1
 16 14  1  0
 14 27  1  0
 15 28  1  0
 17 16  1  0
 16 29  1  1
 17 24  1  1
 18 19  2  0
 18 24  1  0
 19 25  1  0
 20 23  1  0
 24 26  1  0
 25 26  2  0
M  END
$$$$
