
     RDKit          3D

 31 34  0  0  0  0  0  0  0  0999 V2000
  -13.6885    8.8260    0.1599 C   0  0  0  0  0  0  0  0  0  0  0  0
  -12.4582    8.8910   -0.4566 C   0  0  0  0  0  0  0  0  0  0  0  0
  -11.2791    8.9874    0.2797 C   0  0  0  0  0  0  0  0  0  0  0  0
  -12.5685    8.9544    2.3011 C   0  0  0  0  0  0  0  0  0  0  0  0
  -19.1541    9.3362   -0.1587 C   0  0  1  0  0  0  0  0  0  0  0  0
  -27.0347   11.9254    0.2659 C   0  0  0  0  0  0  0  0  0  0  0  0
  -25.7146   11.2289    0.4333 C   0  0  0  0  0  0  0  0  0  0  0  0
  -25.5460    9.9186    0.0360 C   0  0  0  0  0  0  0  0  0  0  0  0
  -24.3138    9.2733    0.1918 C   0  0  0  0  0  0  0  0  0  0  0  0
  -24.6456   11.8926    0.9876 C   0  0  0  0  0  0  0  0  0  0  0  0
  -23.4294   11.2434    1.1371 C   0  0  0  0  0  0  0  0  0  0  0  0
  -23.2434    9.9379    0.7468 C   0  0  0  0  0  0  0  0  0  0  0  0
  -20.6351    9.2311   -0.5149 C   0  0  1  0  0  0  0  0  0  0  0  0
  -20.3604    7.0522   -1.3216 C   0  0  2  0  0  0  0  0  0  0  0  0
  -21.1662    6.1301   -0.4333 C   0  0  0  0  0  0  0  0  0  0  0  0
  -18.8921    7.0724   -0.9356 C   0  0  1  0  0  0  0  0  0  0  0  0
  -18.4283    8.5144   -1.1702 C   0  0  2  0  0  0  0  0  0  0  0  0
  -16.1905    8.6808   -0.1035 C   0  0  0  0  0  0  0  0  0  0  0  0
  -14.9106    8.7251   -0.6201 C   0  0  0  0  0  0  0  0  0  0  0  0
  -11.3481    9.0184    1.6666 C   0  0  0  0  0  0  0  0  0  0  0  0
  -13.7023    8.8601    1.5315 C   0  0  0  0  0  0  0  0  0  0  0  0
  -12.6160    8.9889    3.7883 C   0  0  0  0  0  0  0  0  0  0  0  0
  -10.1813    9.1137    2.3721 F   0  0  0  0  0  0  0  0  0  0  0  0
  -17.0114    8.5900   -1.1473 N   0  0  0  0  0  0  0  0  0  0  0  0
  -15.0079    8.6588   -1.9642 N   0  0  0  0  0  0  0  0  0  0  0  0
  -16.2694    8.5781   -2.2677 N   0  0  0  0  0  0  0  0  0  0  0  0
  -20.8945    8.2963   -1.4854 O   0  0  0  0  0  0  0  0  0  0  0  0
  -22.0071    5.3579   -1.2047 O   0  0  0  0  0  0  0  0  0  0  0  0
  -18.7647    6.8066    0.4349 O   0  0  0  0  0  0  0  0  0  0  0  0
  -18.7718   10.6506   -0.0892 O   0  0  0  0  0  0  0  0  0  0  0  0
  -21.6940    9.0799    0.9279 S   0  0  0  0  0  0  0  0  0  0  0  0
  1  2  2  0
 19  1  1  0
  1 21  1  0
  2  3  1  0
  3 20  2  0
  4 20  1  0
 21  4  2  0
  4 22  1  0
  5 13  1  0
 17  5  1  0
  5 30  1  6
  7  6  1  0
  8  7  2  0
 10  7  1  0
  9  8  1  0
 12  9  2  0
 11 10  2  0
 12 11  1  0
 31 12  1  0
 13 27  1  0
 13 31  1  1
 14 15  1  1
 16 14  1  0
 14 27  1  0
 15 28  1  0
 17 16  1  0
 16 29  1  1
 17 24  1  1
 18 19  2  0
 18 24  1  0
 19 25  1  0
 20 23  1  0
 24 26  1  0
 25 26  2  0
M  END
$$$$
