
     RDKit          3D

 31 34  0  0  0  0  0  0  0  0999 V2000
  -13.5872    9.2279    0.0069 C   0  0  0  0  0  0  0  0  0  0  0  0
  -13.1614    9.9522   -1.0849 C   0  0  0  0  0  0  0  0  0  0  0  0
  -11.8674   10.4634   -1.1597 C   0  0  0  0  0  0  0  0  0  0  0  0
  -11.3953    9.5147    0.9914 C   0  0  0  0  0  0  0  0  0  0  0  0
  -19.2544    9.5749    0.0924 C   0  0  1  0  0  0  0  0  0  0  0  0
  -27.1790   11.2637   -2.3291 C   0  0  0  0  0  0  0  0  0  0  0  0
  -25.9001   10.8876   -1.6372 C   0  0  0  0  0  0  0  0  0  0  0  0
  -25.1260   11.8394   -1.0063 C   0  0  0  0  0  0  0  0  0  0  0  0
  -23.9356   11.4850   -0.3608 C   0  0  0  0  0  0  0  0  0  0  0  0
  -25.4795    9.5787   -1.6205 C   0  0  0  0  0  0  0  0  0  0  0  0
  -24.2985    9.2390   -0.9780 C   0  0  0  0  0  0  0  0  0  0  0  0
  -23.5146   10.1744   -0.3441 C   0  0  0  0  0  0  0  0  0  0  0  0
  -20.5970    9.6275   -0.6330 C   0  0  1  0  0  0  0  0  0  0  0  0
  -20.4654    7.3595   -1.1920 C   0  0  2  0  0  0  0  0  0  0  0  0
  -21.5994    6.6478   -0.4876 C   0  0  0  0  0  0  0  0  0  0  0  0
  -19.1555    7.2279   -0.4357 C   0  0  1  0  0  0  0  0  0  0  0  0
  -18.4328    8.5648   -0.6355 C   0  0  2  0  0  0  0  0  0  0  0  0
  -16.0420    9.2372   -0.5628 C   0  0  0  0  0  0  0  0  0  0  0  0
  -14.9396    8.6998    0.0719 C   0  0  0  0  0  0  0  0  0  0  0  0
  -10.9884   10.2364   -0.1084 C   0  0  0  0  0  0  0  0  0  0  0  0
  -12.6808    9.0316    1.0182 C   0  0  0  0  0  0  0  0  0  0  0  0
  -10.4347    9.2847    2.1046 C   0  0  0  0  0  0  0  0  0  0  0  0
   -9.7233   10.7460   -0.1992 F   0  0  0  0  0  0  0  0  0  0  0  0
  -17.0726    8.4568   -0.2457 N   0  0  0  0  0  0  0  0  0  0  0  0
  -15.3489    7.6088    0.7523 N   0  0  0  0  0  0  0  0  0  0  0  0
  -16.6267    7.4736    0.5547 N   0  0  0  0  0  0  0  0  0  0  0  0
  -20.7446    8.6389   -1.5730 O   0  0  0  0  0  0  0  0  0  0  0  0
  -22.4657    6.1172   -1.4184 O   0  0  0  0  0  0  0  0  0  0  0  0
  -19.4179    7.0916    0.9346 O   0  0  0  0  0  0  0  0  0  0  0  0
  -18.7054   10.8282    0.1724 O   0  0  0  0  0  0  0  0  0  0  0  0
  -21.9939    9.7666    0.4872 S   0  0  0  0  0  0  0  0  0  0  0  0
  1  2  2  0
 19  1  1  0
  1 21  1  0
  2  3  1  0
  3 20  2  0
  4 20  1  0
 21  4  2  0
  4 22  1  0
  5 13  1  0
 17  5  1  0
  5 30  1  6
  7  6  1  0
  8  7  2  0
 10  7  1  0
  9  8  1  0
 12  9  2  0
 11 10  2  0
 12 11  1  0
 31 12  1  0
 13 27  1  0
 13 31  1  1
 14 15  1  1
 16 14  1  0
 14 27  1  0
 15 28  1  0
 17 16  1  0
 16 29  1  1
 17 24  1  1
 18 19  2  0
 18 24  1  0
 19 25  1  0
 20 23  1  0
 24 26  1  0
 25 26  2  0
M  END
$$$$
