
     RDKit          3D

 31 34  0  0  0  0  0  0  0  0999 V2000
  -13.8659    8.8877    0.3914 C   0  0  0  0  0  0  0  0  0  0  0  0
  -14.0618    9.3329    1.6807 C   0  0  0  0  0  0  0  0  0  0  0  0
  -13.0109    9.5644    2.5460 C   0  0  0  0  0  0  0  0  0  0  0  0
  -11.5001    8.9096    0.8564 C   0  0  0  0  0  0  0  0  0  0  0  0
  -19.2537    8.8707   -1.4889 C   0  0  1  0  0  0  0  0  0  0  0  0
  -27.3868    9.8510   -1.2648 C   0  0  0  0  0  0  0  0  0  0  0  0
  -25.9339    9.9203   -1.0817 C   0  0  0  0  0  0  0  0  0  0  0  0
  -25.3947   10.2603    0.1346 C   0  0  0  0  0  0  0  0  0  0  0  0
  -24.0230   10.3226    0.2964 C   0  0  0  0  0  0  0  0  0  0  0  0
  -25.1240    9.6314   -2.1758 C   0  0  0  0  0  0  0  0  0  0  0  0
  -23.7650    9.6972   -2.0006 C   0  0  0  0  0  0  0  0  0  0  0  0
  -23.2046   10.0410   -0.7715 C   0  0  0  0  0  0  0  0  0  0  0  0
  -20.6794    8.5770   -1.2221 C   0  0  1  0  0  0  0  0  0  0  0  0
  -20.2206    6.4228   -0.6191 C   0  0  2  0  0  0  0  0  0  0  0  0
  -20.7148    5.2436    0.1707 C   0  0  0  0  0  0  0  0  0  0  0  0
  -18.7718    6.7498   -0.3113 C   0  0  1  0  0  0  0  0  0  0  0  0
  -18.3361    7.6834   -1.4263 C   0  0  2  0  0  0  0  0  0  0  0  0
  -16.2325    8.2007   -0.1753 C   0  0  0  0  0  0  0  0  0  0  0  0
  -14.9865    8.6433   -0.5236 C   0  0  0  0  0  0  0  0  0  0  0  0
  -11.7081    9.3552    2.1450 C   0  0  0  0  0  0  0  0  0  0  0  0
  -12.5633    8.6781   -0.0109 C   0  0  0  0  0  0  0  0  0  0  0  0
  -10.1100    8.6713    0.3840 C   0  0  0  0  0  0  0  0  0  0  0  0
  -10.6790    9.5872    3.0081 F   0  0  0  0  0  0  0  0  0  0  0  0
  -16.9819    8.1009   -1.2965 N   0  0  0  0  0  0  0  0  0  0  0  0
  -15.0118    8.8021   -1.8579 N   0  0  0  0  0  0  0  0  0  0  0  0
  -16.1997    8.4751   -2.2853 N   0  0  0  0  0  0  0  0  0  0  0  0
  -20.9383    7.5862   -0.3247 O   0  0  0  0  0  0  0  0  0  0  0  0
  -22.0297    5.0009   -0.1900 O   0  0  0  0  0  0  0  0  0  0  0  0
  -18.7606    7.4066    0.9170 O   0  0  0  0  0  0  0  0  0  0  0  0
  -19.1620    9.3790   -2.8059 O   0  0  0  0  0  0  0  0  0  0  0  0
  -21.4341   10.1181   -0.5746 S   0  0  0  0  0  0  0  0  0  0  0  0
  1  2  2  0
 19  1  1  0
  1 21  1  0
  2  3  1  0
  3 20  2  0
  4 20  1  0
 21  4  2  0
 22  4  1  6
  5 13  1  0
 17  5  1  0
  5 30  1  6
  6  7  1  6
  8  7  2  0
 10  7  1  0
  9  8  1  0
 12  9  2  0
 11 10  2  0
 12 11  1  0
 31 12  1  0
 13 27  1  0
 13 31  1  1
 14 15  1  0
 16 14  1  0
 14 27  1  1
 15 28  1  6
 17 16  1  0
 16 29  1  1
 17 24  1  1
 18 19  2  0
 18 24  1  0
 19 25  1  0
 20 23  1  0
 24 26  1  0
 25 26  2  0
M  END
$$$$
