
     RDKit          3D

 31 34  0  0  0  0  0  0  0  0999 V2000
  -13.6407    8.8010   -0.3747 C   0  0  0  0  0  0  0  0  0  0  0  0
  -12.9889    8.5481   -1.5621 C   0  0  0  0  0  0  0  0  0  0  0  0
  -11.6162    8.4173   -1.6338 C   0  0  0  0  0  0  0  0  0  0  0  0
  -11.4782    8.7901    0.6918 C   0  0  0  0  0  0  0  0  0  0  0  0
  -19.5500    9.1586   -1.0656 C   0  0  1  0  0  0  0  0  0  0  0  0
  -27.7444    9.0573   -1.6784 C   0  0  0  0  0  0  0  0  0  0  0  0
  -26.3386    9.2996   -1.3401 C   0  0  0  0  0  0  0  0  0  0  0  0
  -25.9934    9.8733   -0.1412 C   0  0  0  0  0  0  0  0  0  0  0  0
  -24.6645   10.0973    0.1677 C   0  0  0  0  0  0  0  0  0  0  0  0
  -25.3711    8.9306   -2.2697 C   0  0  0  0  0  0  0  0  0  0  0  0
  -24.0568    9.1588   -1.9498 C   0  0  0  0  0  0  0  0  0  0  0  0
  -23.6926    9.7403   -0.7364 C   0  0  0  0  0  0  0  0  0  0  0  0
  -20.9540    8.6911   -1.0856 C   0  0  1  0  0  0  0  0  0  0  0  0
  -20.3352    6.5197   -0.7442 C   0  0  2  0  0  0  0  0  0  0  0  0
  -20.7963    5.1839   -0.2326 C   0  0  0  0  0  0  0  0  0  0  0  0
  -18.9978    6.9262   -0.1552 C   0  0  1  0  0  0  0  0  0  0  0  0
  -18.5164    8.0696   -1.0302 C   0  0  2  0  0  0  0  0  0  0  0  0
  -16.0181    8.1369   -0.9235 C   0  0  0  0  0  0  0  0  0  0  0  0
  -15.0997    8.9392   -0.3047 C   0  0  0  0  0  0  0  0  0  0  0  0
  -10.8365    8.5368   -0.5026 C   0  0  0  0  0  0  0  0  0  0  0  0
  -12.8620    8.9209    0.7575 C   0  0  0  0  0  0  0  0  0  0  0  0
  -10.6742    8.9262    1.9357 C   0  0  0  0  0  0  0  0  0  0  0  0
   -9.4824    8.4058   -0.5857 F   0  0  0  0  0  0  0  0  0  0  0  0
  -17.2563    8.5857   -0.6169 N   0  0  0  0  0  0  0  0  0  0  0  0
  -15.8098    9.8616    0.3669 N   0  0  0  0  0  0  0  0  0  0  0  0
  -17.0767    9.6283    0.1643 N   0  0  0  0  0  0  0  0  0  0  0  0
  -21.2227    7.5446   -0.4020 O   0  0  0  0  0  0  0  0  0  0  0  0
  -22.0680    4.9462   -0.7268 O   0  0  0  0  0  0  0  0  0  0  0  0
  -19.2478    7.3671    1.1423 O   0  0  0  0  0  0  0  0  0  0  0  0
  -19.3254    9.8857   -2.2581 O   0  0  0  0  0  0  0  0  0  0  0  0
  -21.9755   10.0243   -0.3489 S   0  0  0  0  0  0  0  0  0  0  0  0
  1  2  2  0
 19  1  1  0
  1 21  1  0
  2  3  1  0
  3 20  2  0
  4 20  1  0
 21  4  2  0
 22  4  1  6
  5 13  1  0
 17  5  1  0
  5 30  1  6
  6  7  1  6
  8  7  2  0
 10  7  1  0
  9  8  1  0
 12  9  2  0
 11 10  2  0
 12 11  1  0
 31 12  1  0
 13 27  1  0
 13 31  1  1
 14 15  1  0
 16 14  1  0
 14 27  1  1
 15 28  1  6
 17 16  1  0
 16 29  1  1
 17 24  1  1
 18 19  2  0
 18 24  1  0
 19 25  1  0
 20 23  1  0
 24 26  1  0
 25 26  2  0
M  END
$$$$
