
     RDKit          3D

 31 34  0  0  0  0  0  0  0  0999 V2000
  -13.4253    8.7565    0.1871 C   0  0  0  0  0  0  0  0  0  0  0  0
  -12.8119    7.6876   -0.4294 C   0  0  0  0  0  0  0  0  0  0  0  0
  -11.4412    7.5207   -0.4192 C   0  0  0  0  0  0  0  0  0  0  0  0
  -11.2279    9.5054    0.8385 C   0  0  0  0  0  0  0  0  0  0  0  0
  -19.2552    9.2584   -0.9055 C   0  0  1  0  0  0  0  0  0  0  0  0
  -27.1291   10.0190   -2.9313 C   0  0  0  0  0  0  0  0  0  0  0  0
  -25.7948   10.0640   -2.3255 C   0  0  0  0  0  0  0  0  0  0  0  0
  -24.7741    9.2875   -2.8162 C   0  0  0  0  0  0  0  0  0  0  0  0
  -23.5195    9.3377   -2.2373 C   0  0  0  0  0  0  0  0  0  0  0  0
  -25.5986   10.9154   -1.2424 C   0  0  0  0  0  0  0  0  0  0  0  0
  -24.3488   10.9548   -0.6782 C   0  0  0  0  0  0  0  0  0  0  0  0
  -23.3039   10.1720   -1.1664 C   0  0  0  0  0  0  0  0  0  0  0  0
  -20.6715    8.8421   -1.0099 C   0  0  1  0  0  0  0  0  0  0  0  0
  -20.1665    6.6680   -0.5270 C   0  0  2  0  0  0  0  0  0  0  0  0
  -20.7168    5.3757    0.0075 C   0  0  0  0  0  0  0  0  0  0  0  0
  -18.8606    7.0528    0.1419 C   0  0  1  0  0  0  0  0  0  0  0  0
  -18.2712    8.1352   -0.7445 C   0  0  2  0  0  0  0  0  0  0  0  0
  -15.7823    8.1451   -0.4949 C   0  0  0  0  0  0  0  0  0  0  0  0
  -14.8823    8.9287    0.1729 C   0  0  0  0  0  0  0  0  0  0  0  0
  -10.6247    8.4313    0.2179 C   0  0  0  0  0  0  0  0  0  0  0  0
  -12.6098    9.6681    0.8247 C   0  0  0  0  0  0  0  0  0  0  0  0
  -10.3834   10.5109    1.5371 C   0  0  0  0  0  0  0  0  0  0  0  0
   -9.2731    8.2560    0.2212 F   0  0  0  0  0  0  0  0  0  0  0  0
  -17.0251    8.6239   -0.2613 N   0  0  0  0  0  0  0  0  0  0  0  0
  -15.6079    9.8705    0.7996 N   0  0  0  0  0  0  0  0  0  0  0  0
  -16.8662    9.6656    0.5255 N   0  0  0  0  0  0  0  0  0  0  0  0
  -21.0350    7.7397   -0.2981 O   0  0  0  0  0  0  0  0  0  0  0  0
  -21.9337    5.1353   -0.6085 O   0  0  0  0  0  0  0  0  0  0  0  0
  -19.1870    7.5633    1.3961 O   0  0  0  0  0  0  0  0  0  0  0  0
  -18.9151    9.9197   -2.1090 O   0  0  0  0  0  0  0  0  0  0  0  0
  -21.6900   10.2451   -0.4117 S   0  0  0  0  0  0  0  0  0  0  0  0
  1  2  2  0
 19  1  1  0
  1 21  1  0
  2  3  1  0
  3 20  2  0
  4 20  1  0
 21  4  2  0
 22  4  1  6
  5 13  1  0
 17  5  1  0
  5 30  1  6
  6  7  1  6
  8  7  2  0
 10  7  1  0
  9  8  1  0
 12  9  2  0
 11 10  2  0
 12 11  1  0
 31 12  1  0
 13 27  1  0
 13 31  1  1
 14 15  1  0
 16 14  1  0
 14 27  1  1
 15 28  1  6
 17 16  1  0
 16 29  1  1
 17 24  1  1
 18 19  2  0
 18 24  1  0
 19 25  1  0
 20 23  1  0
 24 26  1  0
 25 26  2  0
M  END
$$$$
