
     RDKit          3D

 31 34  0  0  0  0  0  0  0  0999 V2000
  -13.3940    8.2288   -0.3194 C   0  0  0  0  0  0  0  0  0  0  0  0
  -12.7569    7.7034   -1.4226 C   0  0  0  0  0  0  0  0  0  0  0  0
  -11.3827    7.5880   -1.4922 C   0  0  0  0  0  0  0  0  0  0  0  0
  -11.2134    8.5282    0.6650 C   0  0  0  0  0  0  0  0  0  0  0  0
  -19.2026    8.5206   -1.3677 C   0  0  1  0  0  0  0  0  0  0  0  0
  -26.9639    9.1150   -3.7911 C   0  0  0  0  0  0  0  0  0  0  0  0
  -25.6604    9.2386   -3.1316 C   0  0  0  0  0  0  0  0  0  0  0  0
  -25.4096    8.5945   -1.9451 C   0  0  0  0  0  0  0  0  0  0  0  0
  -24.1768    8.7178   -1.3317 C   0  0  0  0  0  0  0  0  0  0  0  0
  -24.6911   10.0263   -3.7451 C   0  0  0  0  0  0  0  0  0  0  0  0
  -23.4726   10.1396   -3.1251 C   0  0  0  0  0  0  0  0  0  0  0  0
  -23.2049    9.4912   -1.9207 C   0  0  0  0  0  0  0  0  0  0  0  0
  -20.6301    8.1338   -1.4200 C   0  0  1  0  0  0  0  0  0  0  0  0
  -20.2068    6.0869   -0.5003 C   0  0  2  0  0  0  0  0  0  0  0  0
  -20.8093    4.9449    0.2686 C   0  0  0  0  0  0  0  0  0  0  0  0
  -18.9003    6.5594    0.1086 C   0  0  1  0  0  0  0  0  0  0  0  0
  -18.2598    7.4242   -0.9622 C   0  0  2  0  0  0  0  0  0  0  0  0
  -15.7626    7.5255   -0.8572 C   0  0  0  0  0  0  0  0  0  0  0  0
  -14.8546    8.3491   -0.2511 C   0  0  0  0  0  0  0  0  0  0  0  0
  -10.5865    8.0006   -0.4445 C   0  0  0  0  0  0  0  0  0  0  0  0
  -12.5988    8.6419    0.7292 C   0  0  0  0  0  0  0  0  0  0  0  0
  -10.3913    8.9853    1.8172 C   0  0  0  0  0  0  0  0  0  0  0  0
   -9.2311    7.8817   -0.5247 F   0  0  0  0  0  0  0  0  0  0  0  0
  -17.0065    7.9630   -0.5573 N   0  0  0  0  0  0  0  0  0  0  0  0
  -15.5766    9.2726    0.4062 N   0  0  0  0  0  0  0  0  0  0  0  0
  -16.8404    9.0197    0.2076 N   0  0  0  0  0  0  0  0  0  0  0  0
  -21.0426    7.2079   -0.5109 O   0  0  0  0  0  0  0  0  0  0  0  0
  -22.1017    4.7488   -0.1885 O   0  0  0  0  0  0  0  0  0  0  0  0
  -19.2310    7.3206    1.2274 O   0  0  0  0  0  0  0  0  0  0  0  0
  -18.8198    8.9167   -2.6707 O   0  0  0  0  0  0  0  0  0  0  0  0
  -21.6111    9.6576   -1.1387 S   0  0  0  0  0  0  0  0  0  0  0  0
  1  2  2  0
 19  1  1  0
  1 21  1  0
  2  3  1  0
  3 20  2  0
  4 20  1  0
 21  4  2  0
 22  4  1  6
  5 13  1  0
 17  5  1  0
  5 30  1  6
  6  7  1  6
  8  7  2  0
 10  7  1  0
  9  8  1  0
 12  9  2  0
 11 10  2  0
 12 11  1  0
 31 12  1  0
 13 27  1  0
 13 31  1  1
 14 15  1  0
 16 14  1  0
 14 27  1  1
 15 28  1  6
 17 16  1  0
 16 29  1  1
 17 24  1  1
 18 19  2  0
 18 24  1  0
 19 25  1  0
 20 23  1  0
 24 26  1  0
 25 26  2  0
M  END
$$$$
