
     RDKit          3D

 31 34  0  0  0  0  0  0  0  0999 V2000
  -13.7302    9.5211   -0.0155 C   0  0  0  0  0  0  0  0  0  0  0  0
  -13.0149   10.6934   -0.1285 C   0  0  0  0  0  0  0  0  0  0  0  0
  -11.8652   10.9261    0.6000 C   0  0  0  0  0  0  0  0  0  0  0  0
  -12.0925    8.8020    1.6014 C   0  0  0  0  0  0  0  0  0  0  0  0
  -19.3244    8.9919   -1.4572 C   0  0  1  0  0  0  0  0  0  0  0  0
  -27.4405    9.2071   -1.6499 C   0  0  0  0  0  0  0  0  0  0  0  0
  -26.0186    9.4026   -1.3512 C   0  0  0  0  0  0  0  0  0  0  0  0
  -25.5955   10.4928   -0.6315 C   0  0  0  0  0  0  0  0  0  0  0  0
  -24.2521   10.6674   -0.3553 C   0  0  0  0  0  0  0  0  0  0  0  0
  -25.1170    8.4513   -1.8189 C   0  0  0  0  0  0  0  0  0  0  0  0
  -23.7874    8.6375   -1.5374 C   0  0  0  0  0  0  0  0  0  0  0  0
  -23.3444    9.7396   -0.8079 C   0  0  0  0  0  0  0  0  0  0  0  0
  -20.6745    8.5091   -1.0910 C   0  0  1  0  0  0  0  0  0  0  0  0
  -19.8723    6.4742   -0.4352 C   0  0  2  0  0  0  0  0  0  0  0  0
  -20.1435    5.2747    0.4288 C   0  0  0  0  0  0  0  0  0  0  0  0
  -18.4720    7.0203   -0.2310 C   0  0  1  0  0  0  0  0  0  0  0  0
  -18.2408    7.9533   -1.4061 C   0  0  2  0  0  0  0  0  0  0  0  0
  -16.0404    8.5608   -0.3830 C   0  0  0  0  0  0  0  0  0  0  0  0
  -14.9513    9.2795   -0.7922 C   0  0  0  0  0  0  0  0  0  0  0  0
  -11.3844    9.9795    1.4801 C   0  0  0  0  0  0  0  0  0  0  0  0
  -13.2504    8.5734    0.8644 C   0  0  0  0  0  0  0  0  0  0  0  0
  -11.6081    7.7546    2.5397 C   0  0  0  0  0  0  0  0  0  0  0  0
  -10.2485   10.2204    2.1937 F   0  0  0  0  0  0  0  0  0  0  0  0
  -16.9572    8.5669   -1.3770 N   0  0  0  0  0  0  0  0  0  0  0  0
  -15.2375    9.7067   -2.0339 N   0  0  0  0  0  0  0  0  0  0  0  0
  -16.4251    9.2717   -2.3515 N   0  0  0  0  0  0  0  0  0  0  0  0
  -20.7349    7.5348   -0.1418 O   0  0  0  0  0  0  0  0  0  0  0  0
  -21.4342    4.8413    0.1755 O   0  0  0  0  0  0  0  0  0  0  0  0
  -18.4884    7.7291    0.9680 O   0  0  0  0  0  0  0  0  0  0  0  0
  -19.3820    9.4454   -2.7960 O   0  0  0  0  0  0  0  0  0  0  0  0
  -21.6093    9.9544   -0.4578 S   0  0  0  0  0  0  0  0  0  0  0  0
  1  2  2  0
 19  1  1  0
  1 21  1  0
  2  3  1  0
  3 20  2  0
  4 20  1  0
 21  4  2  0
 22  4  1  6
  5 13  1  0
 17  5  1  0
  5 30  1  6
  6  7  1  6
  8  7  2  0
 10  7  1  0
  9  8  1  0
 12  9  2  0
 11 10  2  0
 12 11  1  0
 31 12  1  0
 13 27  1  0
 13 31  1  1
 14 15  1  0
 16 14  1  0
 14 27  1  1
 15 28  1  6
 17 16  1  0
 16 29  1  1
 17 24  1  1
 18 19  2  0
 18 24  1  0
 19 25  1  0
 20 23  1  0
 24 26  1  0
 25 26  2  0
M  END
$$$$
