
     RDKit          3D

 31 34  0  0  0  0  0  0  0  0999 V2000
  -13.7683    8.8584    0.0416 C   0  0  0  0  0  0  0  0  0  0  0  0
  -12.6731    8.1266   -0.3634 C   0  0  0  0  0  0  0  0  0  0  0  0
  -11.3830    8.6016   -0.2340 C   0  0  0  0  0  0  0  0  0  0  0  0
  -12.2295   10.5853    0.7223 C   0  0  0  0  0  0  0  0  0  0  0  0
  -19.3268    9.3569   -0.4642 C   0  0  1  0  0  0  0  0  0  0  0  0
  -27.0541   12.0792   -0.4955 C   0  0  0  0  0  0  0  0  0  0  0  0
  -25.7161   11.5634   -0.1902 C   0  0  0  0  0  0  0  0  0  0  0  0
  -24.8360   11.2537   -1.1977 C   0  0  0  0  0  0  0  0  0  0  0  0
  -23.5766   10.7680   -0.8987 C   0  0  0  0  0  0  0  0  0  0  0  0
  -25.3699   11.3992    1.1475 C   0  0  0  0  0  0  0  0  0  0  0  0
  -24.1171   10.9164    1.4293 C   0  0  0  0  0  0  0  0  0  0  0  0
  -23.2141   10.5981    0.4163 C   0  0  0  0  0  0  0  0  0  0  0  0
  -20.7858    9.3514   -0.7116 C   0  0  1  0  0  0  0  0  0  0  0  0
  -20.6508    7.4921   -2.0305 C   0  0  2  0  0  0  0  0  0  0  0  0
  -21.4193    6.3192   -2.5711 C   0  0  0  0  0  0  0  0  0  0  0  0
  -19.3279    7.0744   -1.4169 C   0  0  1  0  0  0  0  0  0  0  0  0
  -18.5401    8.3639   -1.2707 C   0  0  2  0  0  0  0  0  0  0  0  0
  -16.1461    8.9289   -0.8159 C   0  0  0  0  0  0  0  0  0  0  0  0
  -15.1369    8.3485   -0.0984 C   0  0  0  0  0  0  0  0  0  0  0  0
  -11.1406    9.8440    0.3133 C   0  0  0  0  0  0  0  0  0  0  0  0
  -13.5272   10.1011    0.5893 C   0  0  0  0  0  0  0  0  0  0  0  0
  -12.0119   11.9307    1.3180 C   0  0  0  0  0  0  0  0  0  0  0  0
   -9.8629   10.3022    0.4359 F   0  0  0  0  0  0  0  0  0  0  0  0
  -17.2525    8.1601   -0.7000 N   0  0  0  0  0  0  0  0  0  0  0  0
  -15.6610    7.2336    0.4387 N   0  0  0  0  0  0  0  0  0  0  0  0
  -16.9081    7.1490    0.0670 N   0  0  0  0  0  0  0  0  0  0  0  0
  -21.3471    8.1473   -1.0102 O   0  0  0  0  0  0  0  0  0  0  0  0
  -22.7712    6.5990   -2.4606 O   0  0  0  0  0  0  0  0  0  0  0  0
  -19.6189    6.5280   -0.1691 O   0  0  0  0  0  0  0  0  0  0  0  0
  -18.8389   10.6368   -0.8180 O   0  0  0  0  0  0  0  0  0  0  0  0
  -21.5925    9.9723    0.8140 S   0  0  0  0  0  0  0  0  0  0  0  0
  1  2  2  0
 19  1  1  0
  1 21  1  0
  2  3  1  0
  3 20  2  0
  4 20  1  0
 21  4  2  0
 22  4  1  6
  5 13  1  0
 17  5  1  0
  5 30  1  6
  6  7  1  6
  8  7  2  0
 10  7  1  0
  9  8  1  0
 12  9  2  0
 11 10  2  0
 12 11  1  0
 31 12  1  0
 13 27  1  0
 13 31  1  1
 14 15  1  0
 16 14  1  0
 14 27  1  1
 15 28  1  6
 17 16  1  0
 16 29  1  1
 17 24  1  1
 18 19  2  0
 18 24  1  0
 19 25  1  0
 20 23  1  0
 24 26  1  0
 25 26  2  0
M  END
$$$$
