
     RDKit          3D

 31 34  0  0  0  0  0  0  0  0999 V2000
  -13.7259    8.9469    0.2331 C   0  0  0  0  0  0  0  0  0  0  0  0
  -12.6508    8.1450    0.5480 C   0  0  0  0  0  0  0  0  0  0  0  0
  -11.4994    8.6678    1.1332 C   0  0  0  0  0  0  0  0  0  0  0  0
  -12.5005   10.8464    1.0970 C   0  0  0  0  0  0  0  0  0  0  0  0
  -19.1391    9.1121   -0.2514 C   0  0  1  0  0  0  0  0  0  0  0  0
  -27.3630   10.8177   -1.2512 C   0  0  0  0  0  0  0  0  0  0  0  0
  -25.9839   10.4226   -0.8061 C   0  0  0  0  0  0  0  0  0  0  0  0
  -25.7458   10.0057    0.4872 C   0  0  0  0  0  0  0  0  0  0  0  0
  -24.4597    9.6364    0.8979 C   0  0  0  0  0  0  0  0  0  0  0  0
  -24.9304   10.4691   -1.6885 C   0  0  0  0  0  0  0  0  0  0  0  0
  -23.6605   10.1009   -1.2706 C   0  0  0  0  0  0  0  0  0  0  0  0
  -23.4050    9.6830    0.0144 C   0  0  0  0  0  0  0  0  0  0  0  0
  -20.5817    9.1017   -0.7513 C   0  0  1  0  0  0  0  0  0  0  0  0
  -20.4507    6.8315   -1.3016 C   0  0  2  0  0  0  0  0  0  0  0  0
  -21.4272    6.0887   -0.4165 C   0  0  0  0  0  0  0  0  0  0  0  0
  -19.0320    6.7622   -0.7651 C   0  0  1  0  0  0  0  0  0  0  0  0
  -18.4051    8.1222   -1.0922 C   0  0  2  0  0  0  0  0  0  0  0  0
  -16.2075    8.8578   -0.1964 C   0  0  0  0  0  0  0  0  0  0  0  0
  -14.9212    8.3886   -0.3765 C   0  0  0  0  0  0  0  0  0  0  0  0
  -11.4362   10.0286    1.4043 C   0  0  0  0  0  0  0  0  0  0  0  0
  -13.6134   10.2838    0.5211 C   0  0  0  0  0  0  0  0  0  0  0  0
  -12.4087   12.3011    1.3978 C   0  0  0  0  0  0  0  0  0  0  0  0
  -10.2986   10.5235    1.9781 F   0  0  0  0  0  0  0  0  0  0  0  0
  -16.9968    8.0724   -0.9258 N   0  0  0  0  0  0  0  0  0  0  0  0
  -14.9831    7.3315   -1.2126 N   0  0  0  0  0  0  0  0  0  0  0  0
  -16.2299    7.1518   -1.5343 N   0  0  0  0  0  0  0  0  0  0  0  0
  -20.8387    8.0929   -1.6454 O   0  0  0  0  0  0  0  0  0  0  0  0
  -22.0082    5.0599   -1.1253 O   0  0  0  0  0  0  0  0  0  0  0  0
  -19.0651    6.6384    0.6309 O   0  0  0  0  0  0  0  0  0  0  0  0
  -18.6352   10.3865   -0.2735 O   0  0  0  0  0  0  0  0  0  0  0  0
  -21.7850    9.2057    0.5780 S   0  0  0  0  0  0  0  0  0  0  0  0
  1  2  2  0
 19  1  1  0
  1 21  1  0
  2  3  1  0
  3 20  2  0
  4 20  1  0
 21  4  2  0
  4 22  1  0
  5 13  1  0
 17  5  1  0
  5 30  1  6
  7  6  1  0
  8  7  2  0
 10  7  1  0
  9  8  1  0
 12  9  2  0
 11 10  2  0
 12 11  1  0
 31 12  1  0
 13 27  1  0
 13 31  1  1
 14 15  1  1
 16 14  1  0
 14 27  1  0
 15 28  1  0
 17 16  1  0
 16 29  1  1
 17 24  1  1
 18 19  2  0
 18 24  1  0
 19 25  1  0
 20 23  1  0
 24 26  1  0
 25 26  2  0
M  END
$$$$
