
     RDKit          3D

 31 34  0  0  0  0  0  0  0  0999 V2000
  -13.8264    8.2149   -0.3285 C   0  0  0  0  0  0  0  0  0  0  0  0
  -12.6790    7.8420   -0.9935 C   0  0  0  0  0  0  0  0  0  0  0  0
  -11.4197    8.0029   -0.4191 C   0  0  0  0  0  0  0  0  0  0  0  0
  -12.4569    8.9305    1.5338 C   0  0  0  0  0  0  0  0  0  0  0  0
  -19.1551    9.3149   -0.1912 C   0  0  1  0  0  0  0  0  0  0  0  0
  -27.4654   10.8342   -0.7083 C   0  0  0  0  0  0  0  0  0  0  0  0
  -26.0500   10.5099   -0.3245 C   0  0  0  0  0  0  0  0  0  0  0  0
  -25.0167   11.3748   -0.6203 C   0  0  0  0  0  0  0  0  0  0  0  0
  -23.6990   11.0702   -0.2595 C   0  0  0  0  0  0  0  0  0  0  0  0
  -25.7610    9.3380    0.3340 C   0  0  0  0  0  0  0  0  0  0  0  0
  -24.4519    9.0466    0.6867 C   0  0  0  0  0  0  0  0  0  0  0  0
  -23.4098    9.8969    0.4000 C   0  0  0  0  0  0  0  0  0  0  0  0
  -20.5859    9.7161   -0.5424 C   0  0  1  0  0  0  0  0  0  0  0  0
  -20.8849    7.7902   -1.8367 C   0  0  2  0  0  0  0  0  0  0  0  0
  -21.9612    6.9572   -1.1762 C   0  0  0  0  0  0  0  0  0  0  0  0
  -19.4915    7.3068   -1.4762 C   0  0  1  0  0  0  0  0  0  0  0  0
  -18.6334    8.5729   -1.3756 C   0  0  2  0  0  0  0  0  0  0  0  0
  -16.2961    8.6701   -0.5385 C   0  0  0  0  0  0  0  0  0  0  0  0
  -15.1338    8.0411   -0.9391 C   0  0  0  0  0  0  0  0  0  0  0  0
  -11.3215    8.5518    0.8530 C   0  0  0  0  0  0  0  0  0  0  0  0
  -13.6752    8.7518    0.9251 C   0  0  0  0  0  0  0  0  0  0  0  0
  -12.3253    9.5158    2.8958 C   0  0  0  0  0  0  0  0  0  0  0  0
  -10.0780    8.7023    1.4002 F   0  0  0  0  0  0  0  0  0  0  0  0
  -17.2547    8.2378   -1.3546 N   0  0  0  0  0  0  0  0  0  0  0  0
  -15.4365    7.2482   -1.9879 N   0  0  0  0  0  0  0  0  0  0  0  0
  -16.7081    7.3741   -2.2272 N   0  0  0  0  0  0  0  0  0  0  0  0
  -21.0427    9.1379   -1.6999 O   0  0  0  0  0  0  0  0  0  0  0  0
  -22.5503    6.1327   -2.1099 O   0  0  0  0  0  0  0  0  0  0  0  0
  -19.5160    6.7125   -0.2068 O   0  0  0  0  0  0  0  0  0  0  0  0
  -18.4270   10.4163    0.1767 O   0  0  0  0  0  0  0  0  0  0  0  0
  -21.7203    9.5476    0.8398 S   0  0  0  0  0  0  0  0  0  0  0  0
  1  2  2  0
 19  1  1  0
  1 21  1  0
  2  3  1  0
  3 20  2  0
  4 20  1  0
 21  4  2  0
  4 22  1  0
  5 13  1  0
 17  5  1  0
  5 30  1  6
  7  6  1  0
  8  7  2  0
 10  7  1  0
  9  8  1  0
 12  9  2  0
 11 10  2  0
 12 11  1  0
 31 12  1  0
 13 27  1  0
 13 31  1  1
 14 15  1  1
 16 14  1  0
 14 27  1  0
 15 28  1  0
 17 16  1  0
 16 29  1  1
 17 24  1  1
 18 19  2  0
 18 24  1  0
 19 25  1  0
 20 23  1  0
 24 26  1  0
 25 26  2  0
M  END
$$$$
