
     RDKit          3D

 31 34  0  0  0  0  0  0  0  0999 V2000
  -13.8501    8.6191    0.1087 C   0  0  0  0  0  0  0  0  0  0  0  0
  -13.2118    8.8887    1.2994 C   0  0  0  0  0  0  0  0  0  0  0  0
  -11.8823    8.5292    1.5104 C   0  0  0  0  0  0  0  0  0  0  0  0
  -11.8071    7.6064   -0.7016 C   0  0  0  0  0  0  0  0  0  0  0  0
  -19.4974    9.7165   -1.5701 C   0  0  1  0  0  0  0  0  0  0  0  0
  -27.0833    7.4597   -4.5666 C   0  0  0  0  0  0  0  0  0  0  0  0
  -25.8960    8.0629   -3.8721 C   0  0  0  0  0  0  0  0  0  0  0  0
  -24.7130    8.2830   -4.5468 C   0  0  0  0  0  0  0  0  0  0  0  0
  -23.6092    8.8471   -3.8968 C   0  0  0  0  0  0  0  0  0  0  0  0
  -25.9716    8.4091   -2.5435 C   0  0  0  0  0  0  0  0  0  0  0  0
  -24.8718    8.9673   -1.9097 C   0  0  0  0  0  0  0  0  0  0  0  0
  -23.6850    9.1938   -2.5666 C   0  0  0  0  0  0  0  0  0  0  0  0
  -20.7250    9.0813   -2.2189 C   0  0  1  0  0  0  0  0  0  0  0  0
  -20.5920    7.2157   -0.8134 C   0  0  2  0  0  0  0  0  0  0  0  0
  -21.8347    7.2028    0.0493 C   0  0  0  0  0  0  0  0  0  0  0  0
  -19.4035    7.8212   -0.0881 C   0  0  1  0  0  0  0  0  0  0  0  0
  -18.6169    8.5844   -1.1597 C   0  0  2  0  0  0  0  0  0  0  0  0
  -16.2075    8.2097   -0.6824 C   0  0  0  0  0  0  0  0  0  0  0  0
  -15.2372    9.0000   -0.0985 C   0  0  0  0  0  0  0  0  0  0  0  0
  -11.1865    7.8844    0.4957 C   0  0  0  0  0  0  0  0  0  0  0  0
  -13.1190    7.9808   -0.8613 C   0  0  0  0  0  0  0  0  0  0  0  0
  -11.0401    6.9151   -1.7734 C   0  0  0  0  0  0  0  0  0  0  0  0
   -9.8833    7.5390    0.7209 F   0  0  0  0  0  0  0  0  0  0  0  0
  -17.3275    8.9290   -0.6777 N   0  0  0  0  0  0  0  0  0  0  0  0
  -15.8116   10.1735    0.2385 N   0  0  0  0  0  0  0  0  0  0  0  0
  -17.0620   10.1193   -0.1130 N   0  0  0  0  0  0  0  0  0  0  0  0
  -20.7742    7.7183   -2.0680 O   0  0  0  0  0  0  0  0  0  0  0  0
  -22.2247    5.9023    0.2844 O   0  0  0  0  0  0  0  0  0  0  0  0
  -19.8561    8.7592    0.8503 O   0  0  0  0  0  0  0  0  0  0  0  0
  -18.9240   10.6253   -2.4208 O   0  0  0  0  0  0  0  0  0  0  0  0
  -22.2575    9.9076   -1.7777 S   0  0  0  0  0  0  0  0  0  0  0  0
  1  2  2  0
 19  1  1  0
  1 21  1  0
  2  3  1  0
  3 20  2  0
  4 20  1  0
 21  4  2  0
  4 22  1  0
  5 13  1  0
 17  5  1  0
  5 30  1  6
  7  6  1  0
  8  7  2  0
 10  7  1  0
  9  8  1  0
 12  9  2  0
 11 10  2  0
 12 11  1  0
 31 12  1  0
 13 27  1  0
 13 31  1  1
 14 15  1  1
 16 14  1  0
 14 27  1  0
 15 28  1  0
 17 16  1  0
 16 29  1  1
 17 24  1  1
 18 19  2  0
 18 24  1  0
 19 25  1  0
 20 23  1  0
 24 26  1  0
 25 26  2  0
M  END
$$$$
