
     RDKit          3D

 36 39  0  0  0  0  0  0  0  0999 V2000
  -53.7178  -15.8256   11.0836 C   0  0  0  0  0  0  0  0  0  0  0  0
  -44.2060  -15.9283   12.5534 O   0  0  0  0  0  0  0  0  0  0  0  0
  -56.9456  -12.2343   13.4472 C   0  0  0  0  0  0  0  0  0  0  0  0
  -45.4191  -13.5800   11.0514 N   0  0  0  0  0  0  0  0  0  0  0  0
  -43.2866  -16.7921    9.8032 Cl  0  0  0  0  0  0  0  0  0  0  0  0
  -48.4951  -15.9484    8.4371 Cl  0  0  0  0  0  0  0  0  0  0  0  0
  -46.5338  -13.3398   11.2869 C   0  0  0  0  0  0  0  0  0  0  0  0
  -48.1895  -11.7328   11.8632 C   0  0  0  0  0  0  0  0  0  0  0  0
  -45.8897  -16.3505    9.2474 C   0  0  0  0  0  0  0  0  0  0  0  0
  -46.5923  -15.5030   12.0293 C   0  0  0  0  0  0  0  0  0  0  0  0
  -51.7275  -11.7864   12.4115 C   0  0  0  0  0  0  0  0  0  0  0  0
  -51.1973  -14.4502   11.8810 C   0  0  0  0  0  0  0  0  0  0  0  0
  -55.8698  -11.1843   13.5818 C   0  0  0  0  0  0  0  0  0  0  0  0
  -54.4959  -11.7107   13.8284 C   0  0  0  0  0  0  0  0  0  0  0  0
  -59.6145  -11.9918   17.0157 C   0  0  0  0  0  0  0  0  0  0  0  0
  -59.1792  -11.7245   13.8847 C   0  0  0  0  0  0  0  0  0  0  0  0
  -57.4104  -11.0345   15.3564 C   0  0  0  0  0  0  0  0  0  0  0  0
  -60.1894  -11.1475   14.8175 C   0  0  0  0  0  0  0  0  0  0  0  0
  -58.4385  -10.1748   15.9986 C   0  0  0  0  0  0  0  0  0  0  0  0
  -49.4447  -11.3400   12.1350 N   0  0  0  0  0  0  0  0  0  0  0  0
  -48.6877  -15.3647   11.3488 N   0  0  0  0  0  0  0  0  0  0  0  0
  -53.5564  -14.9095   12.1304 O   0  0  0  0  0  0  0  0  0  0  0  0
  -54.0474  -12.3309   12.6809 O   0  0  0  0  0  0  0  0  0  0  0  0
  -45.1251  -15.9447   11.6147 C   0  0  0  0  0  0  0  0  0  0  0  0
  -44.9972  -16.3009   10.2858 C   0  0  0  0  0  0  0  0  0  0  0  0
  -47.3837  -15.9007    9.6797 C   0  0  0  0  0  0  0  0  0  0  0  0
  -47.8800  -13.0554   11.5954 C   0  0  0  0  0  0  0  0  0  0  0  0
  -47.0035  -15.7072   10.8183 C   0  0  0  0  0  0  0  0  0  0  0  0
  -52.4741  -14.0438   12.1327 C   0  0  0  0  0  0  0  0  0  0  0  0
  -52.7536  -12.6826   12.4100 C   0  0  0  0  0  0  0  0  0  0  0  0
  -48.8441  -14.0474   11.5943 C   0  0  0  0  0  0  0  0  0  0  0  0
  -50.4298  -12.2545   12.1453 C   0  0  0  0  0  0  0  0  0  0  0  0
  -50.1462  -13.5589   11.8852 C   0  0  0  0  0  0  0  0  0  0  0  0
  -57.9352  -12.0942   14.5169 N   0  0  2  0  0  4  0  0  0  0  0  0
  -59.7248  -10.8500   16.1308 N   0  0  2  0  0  4  0  0  0  0  0  0
  -43.4742  -14.8326   12.9866 C   0  0  0  0  0  0  0  0  0  0  0  0
 22  1  1  0
 24  2  1  0
  2 36  1  0
 13  3  1  0
 34  3  1  6
  7  4  3  0
 25  5  1  0
 26  6  1  0
 27  7  1  0
 20  8  2  0
  8 27  1  0
  9 25  2  0
 26  9  1  0
 10 24  2  0
 28 10  1  0
 30 11  1  0
 11 32  2  0
 29 12  1  0
 12 33  2  0
 14 13  1  0
 23 14  1  0
 35 15  1  1
 16 18  1  0
 34 16  1  0
 17 19  1  0
 34 17  1  0
 18 35  1  0
 19 35  1  0
 32 20  1  0
 21 28  1  0
 31 21  1  0
 29 22  1  0
 30 23  1  0
 24 25  1  0
 28 26  2  0
 27 31  2  0
 29 30  2  0
 31 33  1  0
 32 33  1  0
M  CHG  2  34   1  35   1
M  END
$$$$
