
     RDKit          3D

 36 39  0  0  0  0  0  0  0  0999 V2000
  -52.9193  -16.0277   13.1952 C   0  0  0  0  0  0  0  0  0  0  0  0
  -43.8420  -15.6044   12.3847 O   0  0  0  0  0  0  0  0  0  0  0  0
  -56.7544  -12.0033   13.0973 C   0  0  0  0  0  0  0  0  0  0  0  0
  -45.1122  -13.6373   10.6626 N   0  0  0  0  0  0  0  0  0  0  0  0
  -43.0567  -16.9893    9.8116 Cl  0  0  0  0  0  0  0  0  0  0  0  0
  -48.3392  -16.4387    8.5874 Cl  0  0  0  0  0  0  0  0  0  0  0  0
  -46.1677  -13.3597   11.0679 C   0  0  0  0  0  0  0  0  0  0  0  0
  -47.6477  -11.7213   11.9520 C   0  0  0  0  0  0  0  0  0  0  0  0
  -45.6904  -16.6697    9.3202 C   0  0  0  0  0  0  0  0  0  0  0  0
  -46.2574  -15.2942   11.9158 C   0  0  0  0  0  0  0  0  0  0  0  0
  -51.0731  -11.6614   12.9932 C   0  0  0  0  0  0  0  0  0  0  0  0
  -50.7508  -14.3108   12.2618 C   0  0  0  0  0  0  0  0  0  0  0  0
  -55.5433  -11.3199   13.6840 C   0  0  0  0  0  0  0  0  0  0  0  0
  -54.3028  -11.4082   12.8600 C   0  0  0  0  0  0  0  0  0  0  0  0
  -60.4812   -9.6652   13.8457 C   0  0  0  0  0  0  0  0  0  0  0  0
  -58.1756  -11.5742   14.8963 C   0  0  0  0  0  0  0  0  0  0  0  0
  -59.0141  -11.8990   12.6688 C   0  0  0  0  0  0  0  0  0  0  0  0
  -59.5573  -11.2957   15.3830 C   0  0  0  0  0  0  0  0  0  0  0  0
  -60.3508  -11.9925   13.3113 C   0  0  0  0  0  0  0  0  0  0  0  0
  -48.8323  -11.2935   12.4181 N   0  0  0  0  0  0  0  0  0  0  0  0
  -48.3868  -15.2956   11.3345 N   0  0  0  0  0  0  0  0  0  0  0  0
  -53.0714  -14.6870   12.8202 O   0  0  0  0  0  0  0  0  0  0  0  0
  -53.3562  -12.1253   13.5616 O   0  0  0  0  0  0  0  0  0  0  0  0
  -44.8085  -15.8062   11.5179 C   0  0  0  0  0  0  0  0  0  0  0  0
  -44.7457  -16.4158   10.2796 C   0  0  0  0  0  0  0  0  0  0  0  0
  -47.1652  -16.1463    9.7353 C   0  0  0  0  0  0  0  0  0  0  0  0
  -47.4426  -13.0384   11.5780 C   0  0  0  0  0  0  0  0  0  0  0  0
  -46.7285  -15.7326   10.7921 C   0  0  0  0  0  0  0  0  0  0  0  0
  -51.9590  -13.8676   12.7118 C   0  0  0  0  0  0  0  0  0  0  0  0
  -52.1313  -12.5137   13.0929 C   0  0  0  0  0  0  0  0  0  0  0  0
  -48.4439  -13.9888   11.6645 C   0  0  0  0  0  0  0  0  0  0  0  0
  -49.8492  -12.1663   12.5228 C   0  0  0  0  0  0  0  0  0  0  0  0
  -49.6677  -13.4647   12.1609 C   0  0  0  0  0  0  0  0  0  0  0  0
  -57.9787  -11.3044   13.4919 N   0  0  2  0  0  4  0  0  0  0  0  0
  -60.5255  -11.0121   14.3773 N   0  0  2  0  0  4  0  0  0  0  0  0
  -43.9587  -15.0543   13.6527 C   0  0  0  0  0  0  0  0  0  0  0  0
 22  1  1  0
 24  2  1  0
  2 36  1  0
 13  3  1  0
 34  3  1  6
  7  4  3  0
 25  5  1  0
 26  6  1  0
 27  7  1  0
 20  8  2  0
  8 27  1  0
  9 25  2  0
 26  9  1  0
 10 24  2  0
 28 10  1  0
 30 11  1  0
 11 32  2  0
 29 12  1  0
 12 33  2  0
 14 13  1  0
 23 14  1  0
 35 15  1  6
 16 18  1  0
 34 16  1  0
 17 19  1  0
 34 17  1  0
 18 35  1  0
 19 35  1  0
 32 20  1  0
 21 28  1  0
 31 21  1  0
 29 22  1  0
 30 23  1  0
 24 25  1  0
 28 26  2  0
 27 31  2  0
 29 30  2  0
 31 33  1  0
 32 33  1  0
M  CHG  2  34   1  35   1
M  END
$$$$
