
     RDKit          3D

 36 39  0  0  0  0  0  0  0  0999 V2000
  -52.7132  -16.5194   12.0490 C   0  0  0  0  0  0  0  0  0  0  0  0
  -44.7369  -16.6057    8.7462 O   0  0  0  0  0  0  0  0  0  0  0  0
  -56.5224  -12.2937   13.2529 C   0  0  0  0  0  0  0  0  0  0  0  0
  -44.8353  -13.4295   11.3076 N   0  0  0  0  0  0  0  0  0  0  0  0
  -42.3549  -16.0244   10.5192 Cl  0  0  0  0  0  0  0  0  0  0  0  0
  -46.1546  -14.8323   14.2403 Cl  0  0  0  0  0  0  0  0  0  0  0  0
  -45.9654  -13.2670   11.5357 C   0  0  0  0  0  0  0  0  0  0  0  0
  -47.7555  -11.7321   11.8455 C   0  0  0  0  0  0  0  0  0  0  0  0
  -44.3234  -15.4525   12.2735 C   0  0  0  0  0  0  0  0  0  0  0  0
  -46.5403  -16.0999   10.3716 C   0  0  0  0  0  0  0  0  0  0  0  0
  -51.2821  -11.9920   12.4074 C   0  0  0  0  0  0  0  0  0  0  0  0
  -50.5259  -14.6527   12.3209 C   0  0  0  0  0  0  0  0  0  0  0  0
  -55.3466  -11.3834   13.5109 C   0  0  0  0  0  0  0  0  0  0  0  0
  -54.0804  -12.0740   13.8923 C   0  0  0  0  0  0  0  0  0  0  0  0
  -60.1975   -9.9870   14.2963 C   0  0  0  0  0  0  0  0  0  0  0  0
  -58.2877  -12.4761   14.7664 C   0  0  0  0  0  0  0  0  0  0  0  0
  -58.6196  -11.6868   12.5220 C   0  0  0  0  0  0  0  0  0  0  0  0
  -59.7274  -12.2351   15.0711 C   0  0  0  0  0  0  0  0  0  0  0  0
  -60.0695  -11.8508   12.8035 C   0  0  0  0  0  0  0  0  0  0  0  0
  -49.0418  -11.4069   12.0532 N   0  0  0  0  0  0  0  0  0  0  0  0
  -47.9432  -15.4279   11.9378 N   0  0  0  0  0  0  0  0  0  0  0  0
  -52.8408  -15.2614   12.6508 O   0  0  0  0  0  0  0  0  0  0  0  0
  -53.5511  -12.6780   12.7709 O   0  0  0  0  0  0  0  0  0  0  0  0
  -45.0087  -16.2121    9.9698 C   0  0  0  0  0  0  0  0  0  0  0  0
  -44.1330  -15.8716   10.9830 C   0  0  0  0  0  0  0  0  0  0  0  0
  -45.8880  -15.3388   12.6738 C   0  0  0  0  0  0  0  0  0  0  0  0
  -47.3338  -13.0499   11.7980 C   0  0  0  0  0  0  0  0  0  0  0  0
  -46.2070  -15.7071   11.5598 C   0  0  0  0  0  0  0  0  0  0  0  0
  -51.8347  -14.3193   12.5067 C   0  0  0  0  0  0  0  0  0  0  0  0
  -52.2298  -12.9595   12.5571 C   0  0  0  0  0  0  0  0  0  0  0  0
  -48.2116  -14.1061   11.9635 C   0  0  0  0  0  0  0  0  0  0  0  0
  -49.9472  -12.3868   12.2174 C   0  0  0  0  0  0  0  0  0  0  0  0
  -49.5529  -13.6877   12.1746 C   0  0  0  0  0  0  0  0  0  0  0  0
  -57.7667  -11.6614   13.6946 N   0  0  2  0  0  4  0  0  0  0  0  0
  -60.4290  -11.4092   14.1465 N   0  0  2  0  0  4  0  0  0  0  0  0
  -45.2624  -16.0951    7.5685 C   0  0  0  0  0  0  0  0  0  0  0  0
 22  1  1  0
 24  2  1  0
  2 36  1  0
 13  3  1  0
 34  3  1  6
  7  4  3  0
 25  5  1  0
 26  6  1  0
 27  7  1  0
 20  8  2  0
  8 27  1  0
  9 25  2  0
 26  9  1  0
 10 24  2  0
 28 10  1  0
 30 11  1  0
 11 32  2  0
 29 12  1  0
 12 33  2  0
 14 13  1  0
 23 14  1  0
 35 15  1  6
 16 18  1  0
 34 16  1  0
 17 19  1  0
 34 17  1  0
 18 35  1  0
 19 35  1  0
 32 20  1  0
 21 28  1  0
 31 21  1  0
 29 22  1  0
 30 23  1  0
 24 25  1  0
 28 26  2  0
 27 31  2  0
 29 30  2  0
 31 33  1  0
 32 33  1  0
M  CHG  2  34   1  35   1
M  END
$$$$
