
     RDKit          3D

 36 39  0  0  0  0  0  0  0  0999 V2000
  -52.6644  -16.4240   12.9507 C   0  0  0  0  0  0  0  0  0  0  0  0
  -44.5875  -17.4059    9.5631 O   0  0  0  0  0  0  0  0  0  0  0  0
  -56.6200  -12.1202   13.4891 C   0  0  0  0  0  0  0  0  0  0  0  0
  -45.3222  -13.2419   10.3211 N   0  0  0  0  0  0  0  0  0  0  0  0
  -42.6023  -16.2894   11.5549 Cl  0  0  0  0  0  0  0  0  0  0  0  0
  -47.0020  -13.9147   13.7251 Cl  0  0  0  0  0  0  0  0  0  0  0  0
  -46.3627  -13.0619   10.8116 C   0  0  0  0  0  0  0  0  0  0  0  0
  -47.9804  -11.5457   11.6722 C   0  0  0  0  0  0  0  0  0  0  0  0
  -44.8481  -15.1594   12.5343 C   0  0  0  0  0  0  0  0  0  0  0  0
  -46.6504  -16.3818   10.4829 C   0  0  0  0  0  0  0  0  0  0  0  0
  -51.3137  -11.8133   12.9520 C   0  0  0  0  0  0  0  0  0  0  0  0
  -50.7043  -14.4567   12.4052 C   0  0  0  0  0  0  0  0  0  0  0  0
  -55.4990  -11.4607   14.2550 C   0  0  0  0  0  0  0  0  0  0  0  0
  -54.2073  -11.3464   13.5175 C   0  0  0  0  0  0  0  0  0  0  0  0
  -60.3358  -10.5273   15.3789 C   0  0  0  0  0  0  0  0  0  0  0  0
  -58.8524  -12.7655   13.6895 C   0  0  0  0  0  0  0  0  0  0  0  0
  -58.2211  -10.4705   13.3658 C   0  0  0  0  0  0  0  0  0  0  0  0
  -60.2843  -12.3634   13.7973 C   0  0  0  0  0  0  0  0  0  0  0  0
  -59.6643  -10.2327   13.1027 C   0  0  0  0  0  0  0  0  0  0  0  0
  -49.1782  -11.2267   12.1889 N   0  0  0  0  0  0  0  0  0  0  0  0
  -48.2972  -15.2229   11.3870 N   0  0  0  0  0  0  0  0  0  0  0  0
  -52.9189  -15.0627   13.1581 O   0  0  0  0  0  0  0  0  0  0  0  0
  -53.4795  -12.5006   13.7189 O   0  0  0  0  0  0  0  0  0  0  0  0
  -45.0826  -16.6299   10.5006 C   0  0  0  0  0  0  0  0  0  0  0  0
  -44.4200  -15.9808   11.5247 C   0  0  0  0  0  0  0  0  0  0  0  0
  -46.4476  -14.9101   12.5071 C   0  0  0  0  0  0  0  0  0  0  0  0
  -47.6336  -12.8553   11.3867 C   0  0  0  0  0  0  0  0  0  0  0  0
  -46.5490  -15.6223   11.5268 C   0  0  0  0  0  0  0  0  0  0  0  0
  -51.9285  -14.1266   12.9064 C   0  0  0  0  0  0  0  0  0  0  0  0
  -52.2469  -12.7761   13.1937 C   0  0  0  0  0  0  0  0  0  0  0  0
  -48.4989  -13.9093   11.6187 C   0  0  0  0  0  0  0  0  0  0  0  0
  -50.0676  -12.2043   12.4341 C   0  0  0  0  0  0  0  0  0  0  0  0
  -49.7458  -13.4972   12.1610 C   0  0  0  0  0  0  0  0  0  0  0  0
  -57.9182  -11.7207   14.0353 N   0  0  2  0  0  4  0  0  0  0  0  0
  -60.5262  -10.9766   14.0148 N   0  0  2  0  0  4  0  0  0  0  0  0
  -45.2936  -18.0797    8.5775 C   0  0  0  0  0  0  0  0  0  0  0  0
 22  1  1  0
 24  2  1  0
  2 36  1  0
 13  3  1  0
 34  3  1  6
  7  4  3  0
 25  5  1  0
 26  6  1  0
 27  7  1  0
 20  8  2  0
  8 27  1  0
  9 25  2  0
 26  9  1  0
 10 24  2  0
 28 10  1  0
 30 11  1  0
 11 32  2  0
 29 12  1  0
 12 33  2  0
 14 13  1  0
 23 14  1  0
 35 15  1  1
 16 18  1  0
 34 16  1  0
 17 19  1  0
 34 17  1  0
 18 35  1  0
 19 35  1  0
 32 20  1  0
 21 28  1  0
 31 21  1  0
 29 22  1  0
 30 23  1  0
 24 25  1  0
 28 26  2  0
 27 31  2  0
 29 30  2  0
 31 33  1  0
 32 33  1  0
M  CHG  2  34   1  35   1
M  END
$$$$
