
     RDKit          3D

 36 39  0  0  0  0  0  0  0  0999 V2000
  -53.2554  -16.8371   12.2724 C   0  0  0  0  0  0  0  0  0  0  0  0
  -44.2241  -15.3279   12.3222 O   0  0  0  0  0  0  0  0  0  0  0  0
  -56.9265  -10.5735   13.8619 C   0  0  0  0  0  0  0  0  0  0  0  0
  -45.7006  -13.5369   10.5237 N   0  0  0  0  0  0  0  0  0  0  0  0
  -43.2451  -16.6331    9.7740 Cl  0  0  0  0  0  0  0  0  0  0  0  0
  -48.5382  -16.7230    8.4774 Cl  0  0  0  0  0  0  0  0  0  0  0  0
  -46.8017  -13.3791   10.8676 C   0  0  0  0  0  0  0  0  0  0  0  0
  -48.5205  -11.8921   11.5682 C   0  0  0  0  0  0  0  0  0  0  0  0
  -45.8911  -16.6321    9.2460 C   0  0  0  0  0  0  0  0  0  0  0  0
  -46.6525  -15.3101   11.8196 C   0  0  0  0  0  0  0  0  0  0  0  0
  -51.9669  -12.2133   12.4845 C   0  0  0  0  0  0  0  0  0  0  0  0
  -51.2696  -14.8428   11.9770 C   0  0  0  0  0  0  0  0  0  0  0  0
  -56.1967  -11.8459   13.5065 C   0  0  0  0  0  0  0  0  0  0  0  0
  -54.7354  -11.6893   13.2498 C   0  0  0  0  0  0  0  0  0  0  0  0
  -61.2170  -11.7909   14.0212 C   0  0  0  0  0  0  0  0  0  0  0  0
  -58.9900   -9.5384   14.1950 C   0  0  0  0  0  0  0  0  0  0  0  0
  -58.5027  -11.7115   15.0953 C   0  0  0  0  0  0  0  0  0  0  0  0
  -60.3826   -9.6254   14.7210 C   0  0  0  0  0  0  0  0  0  0  0  0
  -59.7462  -11.5326   15.8891 C   0  0  0  0  0  0  0  0  0  0  0  0
  -49.7702  -11.5931   11.9584 N   0  0  0  0  0  0  0  0  0  0  0  0
  -48.7586  -15.5690   11.2115 N   0  0  0  0  0  0  0  0  0  0  0  0
  -53.5435  -15.4832   12.4844 O   0  0  0  0  0  0  0  0  0  0  0  0
  -54.1928  -12.9346   13.0102 O   0  0  0  0  0  0  0  0  0  0  0  0
  -45.1479  -15.6505   11.4454 C   0  0  0  0  0  0  0  0  0  0  0  0
  -44.9963  -16.2595   10.2145 C   0  0  0  0  0  0  0  0  0  0  0  0
  -47.4230  -16.2834    9.6370 C   0  0  0  0  0  0  0  0  0  0  0  0
  -48.1288  -13.1941   11.3070 C   0  0  0  0  0  0  0  0  0  0  0  0
  -47.0530  -15.8114   10.6947 C   0  0  0  0  0  0  0  0  0  0  0  0
  -52.5439  -14.5328   12.3492 C   0  0  0  0  0  0  0  0  0  0  0  0
  -52.9082  -13.1896   12.6156 C   0  0  0  0  0  0  0  0  0  0  0  0
  -49.0003  -14.2607   11.4347 C   0  0  0  0  0  0  0  0  0  0  0  0
  -50.6681  -12.5837   12.0975 C   0  0  0  0  0  0  0  0  0  0  0  0
  -50.3028  -13.8694   11.8461 C   0  0  0  0  0  0  0  0  0  0  0  0
  -58.3664  -10.8190   13.9604 N   0  0  2  0  0  4  0  0  0  0  0  0
  -60.8199  -10.9237   15.1116 N   0  0  2  0  0  4  0  0  0  0  0  0
  -44.2722  -15.5200   13.6950 C   0  0  0  0  0  0  0  0  0  0  0  0
 22  1  1  0
 24  2  1  0
  2 36  1  0
 13  3  1  0
 34  3  1  1
  7  4  3  0
 25  5  1  0
 26  6  1  0
 27  7  1  0
 20  8  2  0
  8 27  1  0
  9 25  2  0
 26  9  1  0
 10 24  2  0
 28 10  1  0
 30 11  1  0
 11 32  2  0
 29 12  1  0
 12 33  2  0
 14 13  1  0
 23 14  1  0
 35 15  1  6
 16 18  1  0
 34 16  1  0
 17 19  1  0
 34 17  1  0
 18 35  1  0
 19 35  1  0
 32 20  1  0
 21 28  1  0
 31 21  1  0
 29 22  1  0
 30 23  1  0
 24 25  1  0
 28 26  2  0
 27 31  2  0
 29 30  2  0
 31 33  1  0
 32 33  1  0
M  CHG  2  34   1  35   1
M  END
$$$$
