
     RDKit          3D

 36 39  0  0  0  0  0  0  0  0999 V2000
  -53.7068  -15.8150   11.2115 C   0  0  0  0  0  0  0  0  0  0  0  0
  -44.3392  -14.6119   13.0085 O   0  0  0  0  0  0  0  0  0  0  0  0
  -56.3545  -10.4515   14.1329 C   0  0  0  0  0  0  0  0  0  0  0  0
  -45.3398  -13.2970   10.1259 N   0  0  0  0  0  0  0  0  0  0  0  0
  -42.8863  -16.9195   11.6973 Cl  0  0  0  0  0  0  0  0  0  0  0  0
  -47.5986  -17.6192    9.0496 Cl  0  0  0  0  0  0  0  0  0  0  0  0
  -46.4138  -13.1793   10.5597 C   0  0  0  0  0  0  0  0  0  0  0  0
  -48.0551  -11.7362   11.4977 C   0  0  0  0  0  0  0  0  0  0  0  0
  -45.2684  -17.1741   10.4561 C   0  0  0  0  0  0  0  0  0  0  0  0
  -46.5185  -14.8386   11.8468 C   0  0  0  0  0  0  0  0  0  0  0  0
  -51.4499  -12.0834   12.5821 C   0  0  0  0  0  0  0  0  0  0  0  0
  -50.8431  -14.6643   11.7888 C   0  0  0  0  0  0  0  0  0  0  0  0
  -55.6339  -11.7279   13.7731 C   0  0  0  0  0  0  0  0  0  0  0  0
  -54.1717  -11.5810   13.5164 C   0  0  0  0  0  0  0  0  0  0  0  0
  -59.6055  -11.0059   17.1396 C   0  0  0  0  0  0  0  0  0  0  0  0
  -58.2484  -11.7901   14.3815 C   0  0  0  0  0  0  0  0  0  0  0  0
  -58.2271   -9.4863   15.0615 C   0  0  0  0  0  0  0  0  0  0  0  0
  -59.6378  -11.9380   14.9023 C   0  0  0  0  0  0  0  0  0  0  0  0
  -59.7010   -9.6309   15.1854 C   0  0  0  0  0  0  0  0  0  0  0  0
  -49.2733  -11.4541   11.9876 N   0  0  0  0  0  0  0  0  0  0  0  0
  -48.3975  -15.3576   10.8112 N   0  0  0  0  0  0  0  0  0  0  0  0
  -53.0984  -15.3105   12.3675 O   0  0  0  0  0  0  0  0  0  0  0  0
  -53.6580  -12.8128   13.1683 O   0  0  0  0  0  0  0  0  0  0  0  0
  -45.0258  -15.3012   12.1256 C   0  0  0  0  0  0  0  0  0  0  0  0
  -44.6278  -16.3989   11.3868 C   0  0  0  0  0  0  0  0  0  0  0  0
  -46.7905  -16.6966   10.1798 C   0  0  0  0  0  0  0  0  0  0  0  0
  -47.7090  -13.0140   11.0924 C   0  0  0  0  0  0  0  0  0  0  0  0
  -46.6618  -15.7959   10.9865 C   0  0  0  0  0  0  0  0  0  0  0  0
  -52.0867  -14.3691   12.2633 C   0  0  0  0  0  0  0  0  0  0  0  0
  -52.4042  -13.0513   12.6761 C   0  0  0  0  0  0  0  0  0  0  0  0
  -48.5960  -14.0726   11.1704 C   0  0  0  0  0  0  0  0  0  0  0  0
  -50.1842  -12.4377   12.0857 C   0  0  0  0  0  0  0  0  0  0  0  0
  -49.8634  -13.6998   11.6932 C   0  0  0  0  0  0  0  0  0  0  0  0
  -57.4910  -10.7348   15.0112 N   0  0  2  0  0  4  0  0  0  0  0  0
  -60.0871  -10.9072   15.7769 N   0  0  2  0  0  4  0  0  0  0  0  0
  -44.7869  -13.5338   13.7576 C   0  0  0  0  0  0  0  0  0  0  0  0
 22  1  1  0
 24  2  1  0
  2 36  1  0
 13  3  1  0
 34  3  1  6
  7  4  3  0
 25  5  1  0
 26  6  1  0
 27  7  1  0
 20  8  2  0
  8 27  1  0
  9 25  2  0
 26  9  1  0
 10 24  2  0
 28 10  1  0
 30 11  1  0
 11 32  2  0
 29 12  1  0
 12 33  2  0
 14 13  1  0
 23 14  1  0
 35 15  1  1
 16 18  1  0
 34 16  1  0
 17 19  1  0
 34 17  1  0
 18 35  1  0
 19 35  1  0
 32 20  1  0
 21 28  1  0
 31 21  1  0
 29 22  1  0
 30 23  1  0
 24 25  1  0
 28 26  2  0
 27 31  2  0
 29 30  2  0
 31 33  1  0
 32 33  1  0
M  CHG  2  34   1  35   1
M  END
$$$$
