
     RDKit          3D

 36 39  0  0  0  0  0  0  0  0999 V2000
  -52.5662  -16.3822   13.0644 C   0  0  0  0  0  0  0  0  0  0  0  0
  -45.1985  -16.5261    8.4756 O   0  0  0  0  0  0  0  0  0  0  0  0
  -56.3996  -10.8549   13.3268 C   0  0  0  0  0  0  0  0  0  0  0  0
  -44.9999  -13.2984   11.0380 N   0  0  0  0  0  0  0  0  0  0  0  0
  -42.6440  -15.8882    9.9665 Cl  0  0  0  0  0  0  0  0  0  0  0  0
  -46.0327  -14.5596   14.0233 Cl  0  0  0  0  0  0  0  0  0  0  0  0
  -46.0984  -13.0901   11.3628 C   0  0  0  0  0  0  0  0  0  0  0  0
  -47.8262  -11.5374   11.8727 C   0  0  0  0  0  0  0  0  0  0  0  0
  -44.4178  -15.2516   11.8974 C   0  0  0  0  0  0  0  0  0  0  0  0
  -46.8215  -15.9604   10.2633 C   0  0  0  0  0  0  0  0  0  0  0  0
  -51.2790  -11.7611   12.7938 C   0  0  0  0  0  0  0  0  0  0  0  0
  -50.5715  -14.4295   12.6007 C   0  0  0  0  0  0  0  0  0  0  0  0
  -55.3776  -11.3771   14.3069 C   0  0  0  0  0  0  0  0  0  0  0  0
  -53.9552  -11.2198   13.8854 C   0  0  0  0  0  0  0  0  0  0  0  0
  -60.3098  -12.1577   15.0384 C   0  0  0  0  0  0  0  0  0  0  0  0
  -58.6334  -10.8996   12.6571 C   0  0  0  0  0  0  0  0  0  0  0  0
  -57.9977  -10.3783   14.9142 C   0  0  0  0  0  0  0  0  0  0  0  0
  -60.0732  -10.8131   13.0356 C   0  0  0  0  0  0  0  0  0  0  0  0
  -59.4081   -9.9433   15.0870 C   0  0  0  0  0  0  0  0  0  0  0  0
  -49.0797  -11.1991   12.2159 N   0  0  0  0  0  0  0  0  0  0  0  0
  -48.0529  -15.2315   11.9441 N   0  0  0  0  0  0  0  0  0  0  0  0
  -52.8479  -15.0140   13.1618 O   0  0  0  0  0  0  0  0  0  0  0  0
  -53.5074  -12.4237   13.3827 O   0  0  0  0  0  0  0  0  0  0  0  0
  -45.3406  -16.0895    9.7066 C   0  0  0  0  0  0  0  0  0  0  0  0
  -44.3637  -15.7157   10.6094 C   0  0  0  0  0  0  0  0  0  0  0  0
  -45.9317  -15.1209   12.4561 C   0  0  0  0  0  0  0  0  0  0  0  0
  -47.4294  -12.8596   11.7676 C   0  0  0  0  0  0  0  0  0  0  0  0
  -46.3656  -15.5272   11.3953 C   0  0  0  0  0  0  0  0  0  0  0  0
  -51.8495  -14.0825   12.9246 C   0  0  0  0  0  0  0  0  0  0  0  0
  -52.2190  -12.7186   13.0302 C   0  0  0  0  0  0  0  0  0  0  0  0
  -48.2994  -13.9069   12.0117 C   0  0  0  0  0  0  0  0  0  0  0  0
  -49.9763  -12.1697   12.4623 C   0  0  0  0  0  0  0  0  0  0  0  0
  -49.6060  -13.4748   12.3650 C   0  0  0  0  0  0  0  0  0  0  0  0
  -57.7521  -11.2156   13.7558 N   0  0  2  0  0  4  0  0  0  0  0  0
  -60.3519  -10.8426   14.4322 N   0  0  2  0  0  4  0  0  0  0  0  0
  -46.2088  -16.8195    7.5717 C   0  0  0  0  0  0  0  0  0  0  0  0
 22  1  1  0
 24  2  1  0
  2 36  1  0
 13  3  1  0
 34  3  1  6
  7  4  3  0
 25  5  1  0
 26  6  1  0
 27  7  1  0
 20  8  2  0
  8 27  1  0
  9 25  2  0
 26  9  1  0
 10 24  2  0
 28 10  1  0
 30 11  1  0
 11 32  2  0
 29 12  1  0
 12 33  2  0
 14 13  1  0
 23 14  1  0
 35 15  1  1
 16 18  1  0
 34 16  1  0
 17 19  1  0
 34 17  1  0
 18 35  1  0
 19 35  1  0
 32 20  1  0
 21 28  1  0
 31 21  1  0
 29 22  1  0
 30 23  1  0
 24 25  1  0
 28 26  2  0
 27 31  2  0
 29 30  2  0
 31 33  1  0
 32 33  1  0
M  CHG  2  34   1  35   1
M  END
$$$$
