
     RDKit          3D

 36 39  0  0  0  0  0  0  0  0999 V2000
  -53.5068  -16.5319   11.5482 C   0  0  0  0  0  0  0  0  0  0  0  0
  -44.4061  -15.1284   12.6997 O   0  0  0  0  0  0  0  0  0  0  0  0
  -56.5247  -10.4260   14.2206 C   0  0  0  0  0  0  0  0  0  0  0  0
  -45.5759  -13.7934   10.3739 N   0  0  0  0  0  0  0  0  0  0  0  0
  -43.1269  -17.1644   10.8630 Cl  0  0  0  0  0  0  0  0  0  0  0  0
  -48.1602  -17.6215    8.8227 Cl  0  0  0  0  0  0  0  0  0  0  0  0
  -46.6507  -13.5838   10.7695 C   0  0  0  0  0  0  0  0  0  0  0  0
  -48.2666  -12.0532   11.6076 C   0  0  0  0  0  0  0  0  0  0  0  0
  -45.6586  -17.3120    9.9418 C   0  0  0  0  0  0  0  0  0  0  0  0
  -46.7261  -15.2534   11.8323 C   0  0  0  0  0  0  0  0  0  0  0  0
  -51.7099  -12.2391   12.5719 C   0  0  0  0  0  0  0  0  0  0  0  0
  -51.1775  -14.8621   11.8686 C   0  0  0  0  0  0  0  0  0  0  0  0
  -55.8731  -11.7185   13.7931 C   0  0  0  0  0  0  0  0  0  0  0  0
  -54.4347  -11.6093   13.4129 C   0  0  0  0  0  0  0  0  0  0  0  0
  -60.9200  -10.8469   14.8688 C   0  0  0  0  0  0  0  0  0  0  0  0
  -57.9401  -11.2703   15.8711 C   0  0  0  0  0  0  0  0  0  0  0  0
  -58.4179  -11.5409   13.5325 C   0  0  0  0  0  0  0  0  0  0  0  0
  -59.2276  -11.9377   16.2183 C   0  0  0  0  0  0  0  0  0  0  0  0
  -59.4527  -12.5109   13.9760 C   0  0  0  0  0  0  0  0  0  0  0  0
  -49.4898  -11.7109   12.0438 N   0  0  0  0  0  0  0  0  0  0  0  0
  -48.7272  -15.6760   11.0019 N   0  0  0  0  0  0  0  0  0  0  0  0
  -53.4763  -15.4045   12.3783 O   0  0  0  0  0  0  0  0  0  0  0  0
  -53.9652  -12.8662   13.0930 O   0  0  0  0  0  0  0  0  0  0  0  0
  -45.2032  -15.7015   11.8266 C   0  0  0  0  0  0  0  0  0  0  0  0
  -44.9013  -16.6628   10.8812 C   0  0  0  0  0  0  0  0  0  0  0  0
  -47.2104  -16.8506    9.9563 C   0  0  0  0  0  0  0  0  0  0  0  0
  -47.9569  -13.3540   11.2485 C   0  0  0  0  0  0  0  0  0  0  0  0
  -46.9790  -16.0763   10.8648 C   0  0  0  0  0  0  0  0  0  0  0  0
  -52.4249  -14.5062   12.2882 C   0  0  0  0  0  0  0  0  0  0  0  0
  -52.7048  -13.1663   12.6547 C   0  0  0  0  0  0  0  0  0  0  0  0
  -48.8875  -14.3749   11.3202 C   0  0  0  0  0  0  0  0  0  0  0  0
  -50.4420  -12.6555   12.1328 C   0  0  0  0  0  0  0  0  0  0  0  0
  -50.1574  -13.9392   11.7852 C   0  0  0  0  0  0  0  0  0  0  0  0
  -57.9292  -10.6503   14.5675 N   0  0  2  0  0  4  0  0  0  0  0  0
  -60.1732  -12.0538   15.1593 N   0  0  2  0  0  4  0  0  0  0  0  0
  -44.7739  -14.2912   13.7427 C   0  0  0  0  0  0  0  0  0  0  0  0
 22  1  1  0
 24  2  1  0
  2 36  1  0
 13  3  1  0
 34  3  1  6
  7  4  3  0
 25  5  1  0
 26  6  1  0
 27  7  1  0
 20  8  2  0
  8 27  1  0
  9 25  2  0
 26  9  1  0
 10 24  2  0
 28 10  1  0
 30 11  1  0
 11 32  2  0
 29 12  1  0
 12 33  2  0
 14 13  1  0
 23 14  1  0
 35 15  1  6
 16 18  1  0
 34 16  1  0
 17 19  1  0
 34 17  1  0
 18 35  1  0
 19 35  1  0
 32 20  1  0
 21 28  1  0
 31 21  1  0
 29 22  1  0
 30 23  1  0
 24 25  1  0
 28 26  2  0
 27 31  2  0
 29 30  2  0
 31 33  1  0
 32 33  1  0
M  CHG  2  34   1  35   1
M  END
$$$$
