
     RDKit          3D

 36 39  0  0  0  0  0  0  0  0999 V2000
  -53.6360  -15.3533   11.7172 C   0  0  0  0  0  0  0  0  0  0  0  0
  -44.2450  -16.9079    9.3530 O   0  0  0  0  0  0  0  0  0  0  0  0
  -56.2712  -11.5245   14.5615 C   0  0  0  0  0  0  0  0  0  0  0  0
  -45.0673  -13.0334   10.4334 N   0  0  0  0  0  0  0  0  0  0  0  0
  -42.3713  -16.0021   11.5494 Cl  0  0  0  0  0  0  0  0  0  0  0  0
  -46.9230  -14.0522   13.8266 Cl  0  0  0  0  0  0  0  0  0  0  0  0
  -46.1481  -12.8977   10.8448 C   0  0  0  0  0  0  0  0  0  0  0  0
  -47.8308  -11.4056   11.6182 C   0  0  0  0  0  0  0  0  0  0  0  0
  -44.6874  -15.0717   12.5741 C   0  0  0  0  0  0  0  0  0  0  0  0
  -46.3727  -16.0695   10.3124 C   0  0  0  0  0  0  0  0  0  0  0  0
  -51.2308  -11.7188   12.6966 C   0  0  0  0  0  0  0  0  0  0  0  0
  -50.5603  -14.3514   12.1693 C   0  0  0  0  0  0  0  0  0  0  0  0
  -55.4496  -11.2653   13.3222 C   0  0  0  0  0  0  0  0  0  0  0  0
  -53.9762  -11.1865   13.5420 C   0  0  0  0  0  0  0  0  0  0  0  0
  -60.4893  -11.0308   13.1903 C   0  0  0  0  0  0  0  0  0  0  0  0
  -58.3955  -11.5125   15.5245 C   0  0  0  0  0  0  0  0  0  0  0  0
  -57.9817  -12.5152   13.3811 C   0  0  0  0  0  0  0  0  0  0  0  0
  -59.8497  -11.8153   15.3928 C   0  0  0  0  0  0  0  0  0  0  0  0
  -59.3399  -13.1012   13.5238 C   0  0  0  0  0  0  0  0  0  0  0  0
  -49.0606  -11.1034   12.0652 N   0  0  0  0  0  0  0  0  0  0  0  0
  -48.0886  -15.0838   11.2903 N   0  0  0  0  0  0  0  0  0  0  0  0
  -52.8084  -14.9869   12.7858 O   0  0  0  0  0  0  0  0  0  0  0  0
  -53.4302  -12.4352   13.3294 O   0  0  0  0  0  0  0  0  0  0  0  0
  -44.7992  -16.2736   10.3613 C   0  0  0  0  0  0  0  0  0  0  0  0
  -44.1960  -15.7436   11.4858 C   0  0  0  0  0  0  0  0  0  0  0  0
  -46.2922  -14.8661   12.5147 C   0  0  0  0  0  0  0  0  0  0  0  0
  -47.4530  -12.7092   11.3450 C   0  0  0  0  0  0  0  0  0  0  0  0
  -46.3344  -15.4485   11.4481 C   0  0  0  0  0  0  0  0  0  0  0  0
  -51.8155  -14.0383   12.5993 C   0  0  0  0  0  0  0  0  0  0  0  0
  -52.1657  -12.6934   12.8762 C   0  0  0  0  0  0  0  0  0  0  0  0
  -48.3185  -13.7742   11.5184 C   0  0  0  0  0  0  0  0  0  0  0  0
  -49.9518  -12.0924   12.2508 C   0  0  0  0  0  0  0  0  0  0  0  0
  -49.5998  -13.3797   11.9886 C   0  0  0  0  0  0  0  0  0  0  0  0
  -57.6994  -11.4005   14.2648 N   0  0  2  0  0  4  0  0  0  0  0  0
  -60.2982  -12.1549   14.0841 N   0  0  2  0  0  4  0  0  0  0  0  0
  -44.8860  -17.4197    8.2345 C   0  0  0  0  0  0  0  0  0  0  0  0
 22  1  1  0
 24  2  1  0
  2 36  1  0
 13  3  1  0
 34  3  1  1
  7  4  3  0
 25  5  1  0
 26  6  1  0
 27  7  1  0
 20  8  2  0
  8 27  1  0
  9 25  2  0
 26  9  1  0
 10 24  2  0
 28 10  1  0
 30 11  1  0
 11 32  2  0
 29 12  1  0
 12 33  2  0
 14 13  1  0
 23 14  1  0
 35 15  1  6
 16 18  1  0
 34 16  1  0
 17 19  1  0
 34 17  1  0
 18 35  1  0
 19 35  1  0
 32 20  1  0
 21 28  1  0
 31 21  1  0
 29 22  1  0
 30 23  1  0
 24 25  1  0
 28 26  2  0
 27 31  2  0
 29 30  2  0
 31 33  1  0
 32 33  1  0
M  CHG  2  34   1  35   1
M  END
$$$$
