
     RDKit          3D

 36 39  0  0  0  0  0  0  0  0999 V2000
  -52.9551  -16.3702   11.6105 C   0  0  0  0  0  0  0  0  0  0  0  0
  -44.4523  -17.3926    9.1130 O   0  0  0  0  0  0  0  0  0  0  0  0
  -56.4214  -12.0297   14.0789 C   0  0  0  0  0  0  0  0  0  0  0  0
  -45.0241  -13.4864   10.5751 N   0  0  0  0  0  0  0  0  0  0  0  0
  -42.4016  -16.3467   11.0767 Cl  0  0  0  0  0  0  0  0  0  0  0  0
  -46.7502  -14.2432   13.6008 Cl  0  0  0  0  0  0  0  0  0  0  0  0
  -46.1167  -13.2908   10.9264 C   0  0  0  0  0  0  0  0  0  0  0  0
  -47.8141  -11.7662   11.5978 C   0  0  0  0  0  0  0  0  0  0  0  0
  -44.6255  -15.3468   12.2318 C   0  0  0  0  0  0  0  0  0  0  0  0
  -46.4936  -16.4892   10.1932 C   0  0  0  0  0  0  0  0  0  0  0  0
  -51.2796  -12.0128   12.4640 C   0  0  0  0  0  0  0  0  0  0  0  0
  -50.6300  -14.6577   11.9735 C   0  0  0  0  0  0  0  0  0  0  0  0
  -55.2692  -11.2350   13.5142 C   0  0  0  0  0  0  0  0  0  0  0  0
  -53.9124  -11.7354   13.8810 C   0  0  0  0  0  0  0  0  0  0  0  0
  -60.2613  -10.9233   12.0920 C   0  0  0  0  0  0  0  0  0  0  0  0
  -57.9882  -10.3074   14.2176 C   0  0  0  0  0  0  0  0  0  0  0  0
  -58.6436  -12.5908   13.8613 C   0  0  0  0  0  0  0  0  0  0  0  0
  -59.4107   -9.8745   14.1050 C   0  0  0  0  0  0  0  0  0  0  0  0
  -60.0224  -12.1175   14.1501 C   0  0  0  0  0  0  0  0  0  0  0  0
  -49.0629  -11.4400   11.9688 N   0  0  0  0  0  0  0  0  0  0  0  0
  -48.1238  -15.4383   11.2470 N   0  0  0  0  0  0  0  0  0  0  0  0
  -52.9240  -15.2491   12.4490 O   0  0  0  0  0  0  0  0  0  0  0  0
  -53.5276  -12.6860   12.9586 O   0  0  0  0  0  0  0  0  0  0  0  0
  -44.9209  -16.6921   10.1208 C   0  0  0  0  0  0  0  0  0  0  0  0
  -44.2261  -16.0900   11.1523 C   0  0  0  0  0  0  0  0  0  0  0  0
  -46.2304  -15.1431   12.2964 C   0  0  0  0  0  0  0  0  0  0  0  0
  -47.4460  -13.0768   11.3457 C   0  0  0  0  0  0  0  0  0  0  0  0
  -46.3611  -15.7945   11.2781 C   0  0  0  0  0  0  0  0  0  0  0  0
  -51.9029  -14.3202   12.3261 C   0  0  0  0  0  0  0  0  0  0  0  0
  -52.2429  -12.9689   12.5836 C   0  0  0  0  0  0  0  0  0  0  0  0
  -48.3414  -14.1246   11.4632 C   0  0  0  0  0  0  0  0  0  0  0  0
  -49.9833  -12.4113   12.0971 C   0  0  0  0  0  0  0  0  0  0  0  0
  -49.6413  -13.7051   11.8544 C   0  0  0  0  0  0  0  0  0  0  0  0
  -57.6922  -11.5455   13.5368 N   0  0  2  0  0  4  0  0  0  0  0  0
  -60.3069  -10.8249   13.5367 N   0  0  2  0  0  4  0  0  0  0  0  0
  -45.1700  -17.8859    8.0334 C   0  0  0  0  0  0  0  0  0  0  0  0
 22  1  1  0
 24  2  1  0
  2 36  1  0
 13  3  1  0
 34  3  1  1
  7  4  3  0
 25  5  1  0
 26  6  1  0
 27  7  1  0
 20  8  2  0
  8 27  1  0
  9 25  2  0
 26  9  1  0
 10 24  2  0
 28 10  1  0
 30 11  1  0
 11 32  2  0
 29 12  1  0
 12 33  2  0
 14 13  1  0
 23 14  1  0
 35 15  1  6
 16 18  1  0
 34 16  1  0
 17 19  1  0
 34 17  1  0
 18 35  1  0
 19 35  1  0
 32 20  1  0
 21 28  1  0
 31 21  1  0
 29 22  1  0
 30 23  1  0
 24 25  1  0
 28 26  2  0
 27 31  2  0
 29 30  2  0
 31 33  1  0
 32 33  1  0
M  CHG  2  34   1  35   1
M  END
$$$$
