
     RDKit          3D

 36 39  0  0  0  0  0  0  0  0999 V2000
  -52.4832  -16.8287   13.1697 C   0  0  0  0  0  0  0  0  0  0  0  0
  -45.4623  -16.2297    8.3547 O   0  0  0  0  0  0  0  0  0  0  0  0
  -56.7507  -10.7352   13.2167 C   0  0  0  0  0  0  0  0  0  0  0  0
  -45.1260  -13.1838   11.2326 N   0  0  0  0  0  0  0  0  0  0  0  0
  -42.8015  -15.7123    9.6992 Cl  0  0  0  0  0  0  0  0  0  0  0  0
  -45.8645  -14.8734   14.1287 Cl  0  0  0  0  0  0  0  0  0  0  0  0
  -46.2505  -13.0874   11.5186 C   0  0  0  0  0  0  0  0  0  0  0  0
  -48.1282  -11.6659   11.8500 C   0  0  0  0  0  0  0  0  0  0  0  0
  -44.4198  -15.3113   11.8206 C   0  0  0  0  0  0  0  0  0  0  0  0
  -46.9413  -15.8817   10.3147 C   0  0  0  0  0  0  0  0  0  0  0  0
  -51.5897  -12.1382   12.6345 C   0  0  0  0  0  0  0  0  0  0  0  0
  -50.6468  -14.7399   12.6487 C   0  0  0  0  0  0  0  0  0  0  0  0
  -55.8972  -11.9800   13.2098 C   0  0  0  0  0  0  0  0  0  0  0  0
  -54.4248  -11.7403   13.2032 C   0  0  0  0  0  0  0  0  0  0  0  0
  -60.9225  -12.2779   12.8526 C   0  0  0  0  0  0  0  0  0  0  0  0
  -58.8862   -9.8462   12.9172 C   0  0  0  0  0  0  0  0  0  0  0  0
  -58.4862  -11.7220   14.3635 C   0  0  0  0  0  0  0  0  0  0  0  0
  -60.3503   -9.9457   13.1820 C   0  0  0  0  0  0  0  0  0  0  0  0
  -59.8709  -11.4918   14.8514 C   0  0  0  0  0  0  0  0  0  0  0  0
  -49.4213  -11.4197   12.1159 N   0  0  0  0  0  0  0  0  0  0  0  0
  -48.0395  -15.3540   12.1553 N   0  0  0  0  0  0  0  0  0  0  0  0
  -52.8890  -15.4886   13.1488 O   0  0  0  0  0  0  0  0  0  0  0  0
  -53.7787  -12.9585   13.1696 O   0  0  0  0  0  0  0  0  0  0  0  0
  -45.5087  -15.9278    9.6326 C   0  0  0  0  0  0  0  0  0  0  0  0
  -44.4655  -15.6359   10.4902 C   0  0  0  0  0  0  0  0  0  0  0  0
  -45.8851  -15.2644   12.5075 C   0  0  0  0  0  0  0  0  0  0  0  0
  -47.6145  -12.9515   11.8496 C   0  0  0  0  0  0  0  0  0  0  0  0
  -46.3995  -15.5632   11.4471 C   0  0  0  0  0  0  0  0  0  0  0  0
  -51.9641  -14.4886   12.8937 C   0  0  0  0  0  0  0  0  0  0  0  0
  -52.4542  -13.1590   12.8931 C   0  0  0  0  0  0  0  0  0  0  0  0
  -48.4021  -14.0549   12.1247 C   0  0  0  0  0  0  0  0  0  0  0  0
  -50.2421  -12.4492   12.3871 C   0  0  0  0  0  0  0  0  0  0  0  0
  -49.7566  -13.7196   12.3921 C   0  0  0  0  0  0  0  0  0  0  0  0
  -58.1676  -11.0847   13.1004 N   0  0  2  0  0  4  0  0  0  0  0  0
  -60.7944  -11.1645   13.7706 N   0  0  2  0  0  4  0  0  0  0  0  0
  -46.5191  -16.2241    7.4564 C   0  0  0  0  0  0  0  0  0  0  0  0
 22  1  1  0
 24  2  1  0
  2 36  1  0
 13  3  1  0
 34  3  1  1
  7  4  3  0
 25  5  1  0
 26  6  1  0
 27  7  1  0
 20  8  2  0
  8 27  1  0
  9 25  2  0
 26  9  1  0
 10 24  2  0
 28 10  1  0
 30 11  1  0
 11 32  2  0
 29 12  1  0
 12 33  2  0
 14 13  1  0
 23 14  1  0
 35 15  1  6
 16 18  1  0
 34 16  1  0
 17 19  1  0
 34 17  1  0
 18 35  1  0
 19 35  1  0
 32 20  1  0
 21 28  1  0
 31 21  1  0
 29 22  1  0
 30 23  1  0
 24 25  1  0
 28 26  2  0
 27 31  2  0
 29 30  2  0
 31 33  1  0
 32 33  1  0
M  CHG  2  34   1  35   1
M  END
$$$$
