
     RDKit          3D

 34 38  0  0  0  0  0  0  0  0999 V2000
  -16.9273  -23.2490    5.9809 C   0  0  0  0  0  0  0  0  0  0  0  0
  -15.9964  -25.7158    7.1308 C   0  0  0  0  0  0  0  0  0  0  0  0
  -18.4450  -26.2586    7.2234 C   0  0  0  0  0  0  0  0  0  0  0  0
  -22.1318  -23.5325    7.1210 C   0  0  0  0  0  0  0  0  0  0  0  0
  -23.0565  -23.2685    8.0998 C   0  0  0  0  0  0  0  0  0  0  0  0
  -22.7830  -22.2643    9.0009 C   0  0  0  0  0  0  0  0  0  0  0  0
  -25.6523  -18.9637   10.1776 C   0  0  0  0  0  0  0  0  0  0  0  0
  -28.0363  -18.6596   10.5969 C   0  0  2  0  0  0  0  0  0  0  0  0
  -11.6118  -20.4832    5.5647 N   0  0  0  0  0  0  0  0  0  0  0  0
  -12.8583  -21.1987    5.3077 C   0  0  0  0  0  0  0  0  0  0  0  0
  -13.6860  -20.9892    4.3280 N   0  0  0  0  0  0  0  0  0  0  0  0
  -14.7582  -21.8112    4.4798 N   0  0  0  0  0  0  0  0  0  0  0  0
  -14.6445  -22.5430    5.5340 C   0  0  0  0  0  0  0  0  0  0  0  0
  -13.3582  -22.1409    6.1008 C   0  0  0  0  0  0  0  0  0  0  0  0
  -12.8570  -22.8443    7.2904 C   0  0  0  0  0  0  0  0  0  0  0  0
  -12.4720  -23.3950    8.1844 N   0  0  0  0  0  0  0  0  0  0  0  0
  -15.5331  -23.5549    6.1617 C   0  0  0  0  0  0  0  0  0  0  0  0
  -17.7769  -24.3029    6.4280 C   0  0  0  0  0  0  0  0  0  0  0  0
  -17.3688  -25.4485    6.9607 C   0  0  0  0  0  0  0  0  0  0  0  0
  -15.1414  -24.6641    6.6855 C   0  0  0  0  0  0  0  0  0  0  0  0
  -19.5470  -25.4852    6.8054 C   0  0  0  0  0  0  0  0  0  0  0  0
  -19.1531  -24.3024    6.3288 N   0  0  0  0  0  0  0  0  0  0  0  0
  -19.9755  -23.2077    5.8999 C   0  0  0  0  0  0  0  0  0  0  0  0
  -20.9258  -22.8472    6.9899 C   0  0  0  0  0  0  0  0  0  0  0  0
  -23.7495  -22.0511   10.0846 C   0  0  0  0  0  0  0  0  0  0  0  0
  -24.9499  -21.3013    9.7107 N   0  0  2  0  0  4  0  0  0  0  0  0
  -24.6861  -19.9029    9.4633 C   0  0  0  0  0  0  0  0  0  0  0  0
  -26.9773  -19.4549   10.0609 N   0  0  2  0  0  4  0  0  0  0  0  0
  -28.2324  -17.3339    9.9330 C   0  0  0  0  0  0  0  0  0  0  0  0
  -28.0097  -18.4658   12.0981 C   0  0  0  0  0  0  0  0  0  0  0  0
  -27.1655  -20.8062   10.5697 C   0  0  0  0  0  0  0  0  0  0  0  0
  -25.7998  -21.3470   10.9106 C   0  0  0  0  0  0  0  0  0  0  0  0
  -21.6207  -21.5330    8.9377 C   0  0  0  0  0  0  0  0  0  0  0  0
  -20.7219  -21.8631    7.9126 C   0  0  0  0  0  0  0  0  0  0  0  0
  1 17  2  0
 18  1  1  0
 19  2  1  0
  2 20  2  0
  3 19  1  0
 21  3  2  0
  5  4  2  0
  4 24  1  0
  6  5  1  0
 25  6  1  0
  6 33  2  0
 27  7  1  0
 28  7  1  1
 28  8  1  0
  8 29  1  6
  8 30  1  0
 10  9  1  0
 10 11  1  0
 14 10  2  0
 12 11  1  0
 13 12  2  0
 13 14  1  0
 17 13  1  0
 14 15  1  0
 15 16  3  0
 17 20  1  0
 18 19  2  0
 22 18  1  0
 22 21  1  0
 23 22  1  0
 24 23  1  0
 24 34  2  0
 26 25  1  1
 26 27  1  0
 26 32  1  0
 28 31  1  0
 31 32  1  0
 33 34  1  0
M  CHG  2  26   1  28   1
M  END
$$$$
