
     RDKit          3D

 34 38  0  0  0  0  0  0  0  0999 V2000
  -21.5903  -20.8788   11.3816 C   0  0  0  0  0  0  0  0  0  0  0  0
  -23.6237  -19.2782   10.1257 C   0  0  0  0  0  0  0  0  0  0  0  0
  -24.7225  -21.5008    9.7364 C   0  0  0  0  0  0  0  0  0  0  0  0
  -22.3554  -25.4427    9.2377 C   0  0  0  0  0  0  0  0  0  0  0  0
  -21.8499  -26.0778    8.1314 C   0  0  0  0  0  0  0  0  0  0  0  0
  -20.5753  -25.7573    7.7215 C   0  0  0  0  0  0  0  0  0  0  0  0
  -21.9050  -26.0050    3.3781 C   0  0  0  0  0  0  0  0  0  0  0  0
  -21.0360  -25.4414    1.1693 C   0  0  2  0  0  0  0  0  0  0  0  0
  -17.9612  -16.2422   12.7924 N   0  0  0  0  0  0  0  0  0  0  0  0
  -18.8394  -17.4078   12.7477 C   0  0  0  0  0  0  0  0  0  0  0  0
  -18.7464  -18.4783   13.4787 N   0  0  0  0  0  0  0  0  0  0  0  0
  -19.7053  -19.3586   13.0863 N   0  0  0  0  0  0  0  0  0  0  0  0
  -20.4119  -18.8844   12.1190 C   0  0  0  0  0  0  0  0  0  0  0  0
  -19.8380  -17.5604   11.8841 C   0  0  0  0  0  0  0  0  0  0  0  0
  -20.4638  -16.6842   10.8832 C   0  0  0  0  0  0  0  0  0  0  0  0
  -20.9487  -16.0332   10.1140 N   0  0  0  0  0  0  0  0  0  0  0  0
  -21.5327  -19.4425   11.3190 C   0  0  0  0  0  0  0  0  0  0  0  0
  -22.7618  -21.4028   10.7610 C   0  0  0  0  0  0  0  0  0  0  0  0
  -23.7121  -20.6830   10.1765 C   0  0  0  0  0  0  0  0  0  0  0  0
  -22.4527  -18.7483   10.7449 C   0  0  0  0  0  0  0  0  0  0  0  0
  -24.2848  -22.7894   10.1041 C   0  0  0  0  0  0  0  0  0  0  0  0
  -23.1009  -22.7396   10.7183 N   0  0  0  0  0  0  0  0  0  0  0  0
  -22.2874  -23.8387   11.1530 C   0  0  0  0  0  0  0  0  0  0  0  0
  -21.6555  -24.4845    9.9679 C   0  0  0  0  0  0  0  0  0  0  0  0
  -20.0845  -26.3913    6.4922 C   0  0  0  0  0  0  0  0  0  0  0  0
  -20.3267  -25.6360    5.2618 N   0  0  2  0  0  4  0  0  0  0  0  0
  -21.7111  -25.6584    4.8506 C   0  0  0  0  0  0  0  0  0  0  0  0
  -20.9543  -25.3088    2.5895 N   0  0  2  0  0  4  0  0  0  0  0  0
  -22.4235  -25.4426    0.6112 C   0  0  0  0  0  0  0  0  0  0  0  0
  -20.2601  -26.5987    0.5775 C   0  0  0  0  0  0  0  0  0  0  0  0
  -19.5679  -25.5590    2.9574 C   0  0  0  0  0  0  0  0  0  0  0  0
  -19.5848  -26.3727    4.2268 C   0  0  0  0  0  0  0  0  0  0  0  0
  -19.8127  -24.8295    8.3902 C   0  0  0  0  0  0  0  0  0  0  0  0
  -20.3982  -24.2191    9.5092 C   0  0  0  0  0  0  0  0  0  0  0  0
  1 17  2  0
 18  1  1  0
 19  2  1  0
  2 20  2  0
  3 19  1  0
 21  3  2  0
  5  4  2  0
  4 24  1  0
  6  5  1  0
 25  6  1  0
  6 33  2  0
 27  7  1  0
 28  7  1  1
 28  8  1  0
  8 29  1  1
  8 30  1  0
 10  9  1  0
 10 11  1  0
 14 10  2  0
 12 11  1  0
 13 12  2  0
 13 14  1  0
 17 13  1  0
 14 15  1  0
 15 16  3  0
 17 20  1  0
 18 19  2  0
 22 18  1  0
 22 21  1  0
 23 22  1  0
 24 23  1  0
 24 34  2  0
 26 25  1  1
 26 27  1  0
 26 32  1  0
 28 31  1  0
 31 32  1  0
 33 34  1  0
M  CHG  2  26   1  28   1
M  END
$$$$
