
     RDKit          3D

 34 38  0  0  0  0  0  0  0  0999 V2000
  -12.0343   -8.5555   26.0813 C   0  0  0  0  0  0  0  0  0  0  0  0
  -13.8618   -9.8792   27.8651 C   0  0  0  0  0  0  0  0  0  0  0  0
  -13.0860   -8.1308   29.4899 C   0  0  0  0  0  0  0  0  0  0  0  0
   -9.9403   -4.1575   28.6610 C   0  0  0  0  0  0  0  0  0  0  0  0
  -10.1012   -2.8468   29.0337 C   0  0  0  0  0  0  0  0  0  0  0  0
  -11.2460   -2.1925   28.6379 C   0  0  0  0  0  0  0  0  0  0  0  0
   -8.3019    1.0711   29.6223 C   0  0  0  0  0  0  0  0  0  0  0  0
   -7.6953    3.3152   28.8822 C   0  0  2  0  0  0  0  0  0  0  0  0
  -14.3459  -10.7847   21.0288 N   0  0  0  0  0  0  0  0  0  0  0  0
  -13.4896  -10.4320   22.1575 C   0  0  0  0  0  0  0  0  0  0  0  0
  -12.1913  -10.3728   22.1582 N   0  0  0  0  0  0  0  0  0  0  0  0
  -11.7692  -10.0788   23.4167 N   0  0  0  0  0  0  0  0  0  0  0  0
  -12.7618   -9.9502   24.2279 C   0  0  0  0  0  0  0  0  0  0  0  0
  -13.9336  -10.1820   23.3850 C   0  0  0  0  0  0  0  0  0  0  0  0
  -15.2718  -10.0296   23.9742 C   0  0  0  0  0  0  0  0  0  0  0  0
  -16.2873   -9.9305   24.4319 N   0  0  0  0  0  0  0  0  0  0  0  0
  -12.8457   -9.6759   25.6858 C   0  0  0  0  0  0  0  0  0  0  0  0
  -12.2477   -8.1835   27.4409 C   0  0  0  0  0  0  0  0  0  0  0  0
  -13.0856   -8.7798   28.2806 C   0  0  0  0  0  0  0  0  0  0  0  0
  -13.6518  -10.2561   26.5052 C   0  0  0  0  0  0  0  0  0  0  0  0
  -12.1571   -7.0872   29.3019 C   0  0  0  0  0  0  0  0  0  0  0  0
  -11.6434   -7.1147   28.0703 N   0  0  0  0  0  0  0  0  0  0  0  0
  -10.6043   -6.2853   27.5309 C   0  0  0  0  0  0  0  0  0  0  0  0
  -10.8662   -4.8646   27.8971 C   0  0  0  0  0  0  0  0  0  0  0  0
  -11.3613   -0.7704   28.9817 C   0  0  0  0  0  0  0  0  0  0  0  0
  -10.2778    0.0804   28.4865 N   0  0  2  0  0  4  0  0  0  0  0  0
   -9.0132   -0.1856   29.1317 C   0  0  0  0  0  0  0  0  0  0  0  0
   -8.3818    2.0866   28.6360 N   0  0  2  0  0  4  0  0  0  0  0  0
   -7.4471    4.1568   27.6710 C   0  0  0  0  0  0  0  0  0  0  0  0
   -6.4129    3.1967   29.6777 C   0  0  0  0  0  0  0  0  0  0  0  0
   -9.7386    2.4340   28.2379 C   0  0  0  0  0  0  0  0  0  0  0  0
  -10.6628    1.4402   28.8951 C   0  0  0  0  0  0  0  0  0  0  0  0
  -12.2147   -2.8188   27.8901 C   0  0  0  0  0  0  0  0  0  0  0  0
  -11.9782   -4.1573   27.5437 C   0  0  0  0  0  0  0  0  0  0  0  0
  1 17  2  0
 18  1  1  0
 19  2  1  0
  2 20  2  0
  3 19  1  0
 21  3  2  0
  5  4  2  0
  4 24  1  0
  6  5  1  0
 25  6  1  0
  6 33  2  0
 27  7  1  0
 28  7  1  1
 28  8  1  0
  8 29  1  6
  8 30  1  0
 10  9  1  0
 10 11  1  0
 14 10  2  0
 12 11  1  0
 13 12  2  0
 13 14  1  0
 17 13  1  0
 14 15  1  0
 15 16  3  0
 17 20  1  0
 18 19  2  0
 22 18  1  0
 22 21  1  0
 23 22  1  0
 24 23  1  0
 24 34  2  0
 26 25  1  1
 26 27  1  0
 26 32  1  0
 28 31  1  0
 31 32  1  0
 33 34  1  0
M  CHG  2  26   1  28   1
M  END
$$$$
