
     RDKit          3D

 34 38  0  0  0  0  0  0  0  0999 V2000
  -20.0343  -17.5017   12.9706 C   0  0  0  0  0  0  0  0  0  0  0  0
  -20.0138  -17.7245   15.8383 C   0  0  0  0  0  0  0  0  0  0  0  0
  -22.4453  -18.2605   15.5232 C   0  0  0  0  0  0  0  0  0  0  0  0
  -22.6076  -20.0186   10.5133 C   0  0  0  0  0  0  0  0  0  0  0  0
  -22.9930  -21.2449   10.0335 C   0  0  0  0  0  0  0  0  0  0  0  0
  -24.1894  -21.7685   10.4691 C   0  0  0  0  0  0  0  0  0  0  0  0
  -27.2792  -25.3828    9.2709 C   0  0  0  0  0  0  0  0  0  0  0  0
  -29.5655  -24.8446    8.6116 C   0  0  2  0  0  0  0  0  0  0  0  0
  -14.3153  -15.7464   12.3024 N   0  0  0  0  0  0  0  0  0  0  0  0
  -15.5827  -16.4708   12.3328 C   0  0  0  0  0  0  0  0  0  0  0  0
  -16.0630  -17.2345   11.3974 N   0  0  0  0  0  0  0  0  0  0  0  0
  -17.2950  -17.6662   11.7771 N   0  0  0  0  0  0  0  0  0  0  0  0
  -17.6227  -17.1978   12.9316 C   0  0  0  0  0  0  0  0  0  0  0  0
  -16.4677  -16.3903   13.3210 C   0  0  0  0  0  0  0  0  0  0  0  0
  -16.4593  -15.7596   14.6490 C   0  0  0  0  0  0  0  0  0  0  0  0
  -16.4460  -15.2964   15.6667 N   0  0  0  0  0  0  0  0  0  0  0  0
  -18.8466  -17.3274   13.7639 C   0  0  0  0  0  0  0  0  0  0  0  0
  -21.1795  -17.7997   13.7656 C   0  0  0  0  0  0  0  0  0  0  0  0
  -21.1922  -17.9074   15.0889 C   0  0  0  0  0  0  0  0  0  0  0  0
  -18.8645  -17.4256   15.0477 C   0  0  0  0  0  0  0  0  0  0  0  0
  -23.1931  -18.3464   14.3312 C   0  0  0  0  0  0  0  0  0  0  0  0
  -22.4382  -18.0653   13.2670 N   0  0  0  0  0  0  0  0  0  0  0  0
  -22.8531  -17.9527   11.8981 C   0  0  0  0  0  0  0  0  0  0  0  0
  -23.3542  -19.2736   11.4235 C   0  0  0  0  0  0  0  0  0  0  0  0
  -24.5445  -23.1141   10.0031 C   0  0  0  0  0  0  0  0  0  0  0  0
  -25.9554  -23.4738   10.1538 N   0  0  2  0  0  4  0  0  0  0  0  0
  -26.1707  -24.9014   10.2012 C   0  0  0  0  0  0  0  0  0  0  0  0
  -28.3910  -24.5066    9.3517 N   0  0  2  0  0  4  0  0  0  0  0  0
  -30.8485  -24.7312    9.3715 C   0  0  0  0  0  0  0  0  0  0  0  0
  -29.5248  -26.1797    7.8993 C   0  0  0  0  0  0  0  0  0  0  0  0
  -28.0855  -23.1162    9.0461 C   0  0  0  0  0  0  0  0  0  0  0  0
  -26.5875  -23.0101    8.9090 C   0  0  0  0  0  0  0  0  0  0  0  0
  -24.9916  -21.0953   11.3597 C   0  0  0  0  0  0  0  0  0  0  0  0
  -24.5295  -19.8495   11.8090 C   0  0  0  0  0  0  0  0  0  0  0  0
  1 17  2  0
 18  1  1  0
 19  2  1  0
  2 20  2  0
  3 19  1  0
 21  3  2  0
  5  4  2  0
  4 24  1  0
  6  5  1  0
 25  6  1  0
  6 33  2  0
 27  7  1  0
 28  7  1  6
 28  8  1  0
  8 29  1  1
  8 30  1  0
 10  9  1  0
 10 11  1  0
 14 10  2  0
 12 11  1  0
 13 12  2  0
 13 14  1  0
 17 13  1  0
 14 15  1  0
 15 16  3  0
 17 20  1  0
 18 19  2  0
 22 18  1  0
 22 21  1  0
 23 22  1  0
 24 23  1  0
 24 34  2  0
 26 25  1  6
 26 27  1  0
 26 32  1  0
 28 31  1  0
 31 32  1  0
 33 34  1  0
M  CHG  2  26   1  28   1
M  END
$$$$
