
     RDKit          3D

 34 38  0  0  0  0  0  0  0  0999 V2000
  -12.1977   -7.9792   26.7906 C   0  0  0  0  0  0  0  0  0  0  0  0
  -14.1017   -9.6134   28.1971 C   0  0  0  0  0  0  0  0  0  0  0  0
  -13.2830   -8.3362   30.1964 C   0  0  0  0  0  0  0  0  0  0  0  0
  -10.6285   -3.9631   27.5981 C   0  0  0  0  0  0  0  0  0  0  0  0
  -11.0682   -2.6935   27.3195 C   0  0  0  0  0  0  0  0  0  0  0  0
  -12.1776   -2.2268   27.9880 C   0  0  0  0  0  0  0  0  0  0  0  0
  -12.2228    2.6800   28.0240 C   0  0  0  0  0  0  0  0  0  0  0  0
  -10.1586    3.9138   28.4346 C   0  0  2  0  0  0  0  0  0  0  0  0
  -12.5125  -10.4587   21.3836 N   0  0  0  0  0  0  0  0  0  0  0  0
  -12.7249   -9.5975   22.5433 C   0  0  0  0  0  0  0  0  0  0  0  0
  -12.7831   -8.2992   22.5459 N   0  0  0  0  0  0  0  0  0  0  0  0
  -12.9217   -7.8717   23.8290 N   0  0  0  0  0  0  0  0  0  0  0  0
  -12.9510   -8.8609   24.6540 C   0  0  0  0  0  0  0  0  0  0  0  0
  -12.8239  -10.0363   23.7939 C   0  0  0  0  0  0  0  0  0  0  0  0
  -12.9040  -11.3720   24.4029 C   0  0  0  0  0  0  0  0  0  0  0  0
  -12.9822  -12.3833   24.8738 N   0  0  0  0  0  0  0  0  0  0  0  0
  -13.0460   -8.9386   26.1347 C   0  0  0  0  0  0  0  0  0  0  0  0
  -12.4169   -7.9336   28.1985 C   0  0  0  0  0  0  0  0  0  0  0  0
  -13.2897   -8.6778   28.8672 C   0  0  0  0  0  0  0  0  0  0  0  0
  -13.8862   -9.6637   26.7877 C   0  0  0  0  0  0  0  0  0  0  0  0
  -12.3116   -7.3171   30.2679 C   0  0  0  0  0  0  0  0  0  0  0  0
  -11.7810   -7.0715   29.0681 N   0  0  0  0  0  0  0  0  0  0  0  0
  -10.7026   -6.1809   28.7477 C   0  0  0  0  0  0  0  0  0  0  0  0
  -11.2448   -4.8125   28.5145 C   0  0  0  0  0  0  0  0  0  0  0  0
  -12.6756   -0.8966   27.6185 C   0  0  0  0  0  0  0  0  0  0  0  0
  -12.0664    0.2203   28.3425 N   0  0  2  0  0  4  0  0  0  0  0  0
  -12.9229    1.3814   28.4107 C   0  0  0  0  0  0  0  0  0  0  0  0
  -10.9346    2.7278   28.6146 N   0  0  2  0  0  4  0  0  0  0  0  0
  -10.9302    5.1931   28.5027 C   0  0  0  0  0  0  0  0  0  0  0  0
   -9.2716    3.9319   27.2079 C   0  0  0  0  0  0  0  0  0  0  0  0
  -10.0735    1.6044   28.2731 C   0  0  0  0  0  0  0  0  0  0  0  0
  -10.9172    0.6130   27.5122 C   0  0  0  0  0  0  0  0  0  0  0  0
  -12.8401   -2.9963   28.9146 C   0  0  0  0  0  0  0  0  0  0  0  0
  -12.3346   -4.2846   29.1432 C   0  0  0  0  0  0  0  0  0  0  0  0
  1 17  2  0
 18  1  1  0
 19  2  1  0
  2 20  2  0
  3 19  1  0
 21  3  2  0
  5  4  2  0
  4 24  1  0
  6  5  1  0
 25  6  1  0
  6 33  2  0
 27  7  1  0
 28  7  1  6
 28  8  1  0
  8 29  1  6
  8 30  1  0
 10  9  1  0
 10 11  1  0
 14 10  2  0
 12 11  1  0
 13 12  2  0
 13 14  1  0
 17 13  1  0
 14 15  1  0
 15 16  3  0
 17 20  1  0
 18 19  2  0
 22 18  1  0
 22 21  1  0
 23 22  1  0
 24 23  1  0
 24 34  2  0
 26 25  1  6
 26 27  1  0
 26 32  1  0
 28 31  1  0
 31 32  1  0
 33 34  1  0
M  CHG  2  26   1  28   1
M  END
$$$$
