
     RDKit          3D

 34 38  0  0  0  0  0  0  0  0999 V2000
  -23.8408  -19.8374    8.4050 C   0  0  0  0  0  0  0  0  0  0  0  0
  -24.8059  -19.6808   11.1102 C   0  0  0  0  0  0  0  0  0  0  0  0
  -24.2199  -22.1208   11.1522 C   0  0  0  0  0  0  0  0  0  0  0  0
  -21.4866  -24.4544    6.8499 C   0  0  0  0  0  0  0  0  0  0  0  0
  -20.5458  -25.4481    6.9515 C   0  0  0  0  0  0  0  0  0  0  0  0
  -20.1025  -25.7999    8.2065 C   0  0  0  0  0  0  0  0  0  0  0  0
  -18.2094  -30.3072    7.7959 C   0  0  0  0  0  0  0  0  0  0  0  0
  -19.1944  -31.8987    6.2312 C   0  0  2  0  0  0  0  0  0  0  0  0
  -23.4250  -13.8486    7.7107 N   0  0  0  0  0  0  0  0  0  0  0  0
  -23.6564  -15.2869    7.6123 C   0  0  0  0  0  0  0  0  0  0  0  0
  -23.8515  -15.9691    6.5236 N   0  0  0  0  0  0  0  0  0  0  0  0
  -24.0985  -17.2634    6.8587 N   0  0  0  0  0  0  0  0  0  0  0  0
  -24.0708  -17.4323    8.1355 C   0  0  0  0  0  0  0  0  0  0  0  0
  -23.7668  -16.1008    8.6572 C   0  0  0  0  0  0  0  0  0  0  0  0
  -23.5741  -15.9339   10.1050 C   0  0  0  0  0  0  0  0  0  0  0  0
  -23.4446  -15.7975   11.2074 N   0  0  0  0  0  0  0  0  0  0  0  0
  -24.3078  -18.6150    9.0032 C   0  0  0  0  0  0  0  0  0  0  0  0
  -23.9078  -20.9420    9.3038 C   0  0  0  0  0  0  0  0  0  0  0  0
  -24.3489  -20.8918   10.5550 C   0  0  0  0  0  0  0  0  0  0  0  0
  -24.7416  -18.5719   10.2148 C   0  0  0  0  0  0  0  0  0  0  0  0
  -23.6655  -22.9231   10.1343 C   0  0  0  0  0  0  0  0  0  0  0  0
  -23.4784  -22.2210    9.0147 N   0  0  0  0  0  0  0  0  0  0  0  0
  -23.0288  -22.7005    7.7394 C   0  0  0  0  0  0  0  0  0  0  0  0
  -22.0154  -23.7738    7.9445 C   0  0  0  0  0  0  0  0  0  0  0  0
  -19.0409  -26.8101    8.2864 C   0  0  0  0  0  0  0  0  0  0  0  0
  -19.4810  -28.1932    8.0958 N   0  0  2  0  0  4  0  0  0  0  0  0
  -18.5997  -29.1551    8.7159 C   0  0  0  0  0  0  0  0  0  0  0  0
  -19.3476  -30.7620    7.0831 N   0  0  2  0  0  4  0  0  0  0  0  0
  -18.1958  -31.7361    5.1299 C   0  0  0  0  0  0  0  0  0  0  0  0
  -20.4782  -32.4624    5.6602 C   0  0  0  0  0  0  0  0  0  0  0  0
  -20.0172  -29.7343    6.2987 C   0  0  0  0  0  0  0  0  0  0  0  0
  -19.3696  -28.4175    6.6462 C   0  0  0  0  0  0  0  0  0  0  0  0
  -20.5787  -25.1851    9.3401 C   0  0  0  0  0  0  0  0  0  0  0  0
  -21.5355  -24.1760    9.1567 C   0  0  0  0  0  0  0  0  0  0  0  0
  1 17  2  0
 18  1  1  0
 19  2  1  0
  2 20  2  0
  3 19  1  0
 21  3  2  0
  5  4  2  0
  4 24  1  0
  6  5  1  0
 25  6  1  0
  6 33  2  0
 27  7  1  0
 28  7  1  6
 28  8  1  0
  8 29  1  6
  8 30  1  0
 10  9  1  0
 10 11  1  0
 14 10  2  0
 12 11  1  0
 13 12  2  0
 13 14  1  0
 17 13  1  0
 14 15  1  0
 15 16  3  0
 17 20  1  0
 18 19  2  0
 22 18  1  0
 22 21  1  0
 23 22  1  0
 24 23  1  0
 24 34  2  0
 26 25  1  6
 26 27  1  0
 26 32  1  0
 28 31  1  0
 31 32  1  0
 33 34  1  0
M  CHG  2  26   1  28   1
M  END
$$$$
