
     RDKit          3D

 34 38  0  0  0  0  0  0  0  0999 V2000
  -20.9312  -18.5193   11.5208 C   0  0  0  0  0  0  0  0  0  0  0  0
  -20.8333  -18.5385   14.3955 C   0  0  0  0  0  0  0  0  0  0  0  0
  -22.7094  -20.1886   14.1583 C   0  0  0  0  0  0  0  0  0  0  0  0
  -24.4391  -22.3796    9.8685 C   0  0  0  0  0  0  0  0  0  0  0  0
  -24.5692  -23.7098    9.5581 C   0  0  0  0  0  0  0  0  0  0  0  0
  -23.4439  -24.5017    9.5996 C   0  0  0  0  0  0  0  0  0  0  0  0
  -21.1102  -27.7030    7.2493 C   0  0  0  0  0  0  0  0  0  0  0  0
  -20.0653  -29.8526    7.7381 C   0  0  2  0  0  0  0  0  0  0  0  0
  -16.2813  -14.6484   10.9170 N   0  0  0  0  0  0  0  0  0  0  0  0
  -17.2899  -15.7028   10.8652 C   0  0  0  0  0  0  0  0  0  0  0  0
  -17.6667  -16.3657    9.8127 N   0  0  0  0  0  0  0  0  0  0  0  0
  -18.6739  -17.2079   10.1656 N   0  0  0  0  0  0  0  0  0  0  0  0
  -18.9584  -17.1026   11.4178 C   0  0  0  0  0  0  0  0  0  0  0  0
  -18.0232  -16.0894   11.9040 C   0  0  0  0  0  0  0  0  0  0  0  0
  -18.0079  -15.7695   13.3388 C   0  0  0  0  0  0  0  0  0  0  0  0
  -17.9948  -15.5452   14.4343 N   0  0  0  0  0  0  0  0  0  0  0  0
  -19.9790  -17.7529   12.2798 C   0  0  0  0  0  0  0  0  0  0  0  0
  -21.8018  -19.2817   12.3534 C   0  0  0  0  0  0  0  0  0  0  0  0
  -21.7737  -19.3055   13.6806 C   0  0  0  0  0  0  0  0  0  0  0  0
  -19.9597  -17.7730   13.5671 C   0  0  0  0  0  0  0  0  0  0  0  0
  -23.3139  -20.6905   12.9878 C   0  0  0  0  0  0  0  0  0  0  0  0
  -22.7755  -20.1451   11.8950 N   0  0  0  0  0  0  0  0  0  0  0  0
  -23.1810  -20.3241   10.5304 C   0  0  0  0  0  0  0  0  0  0  0  0
  -23.2306  -21.7802   10.2168 C   0  0  0  0  0  0  0  0  0  0  0  0
  -23.5918  -25.9031    9.1894 C   0  0  0  0  0  0  0  0  0  0  0  0
  -22.3479  -26.6734    9.1425 N   0  0  2  0  0  4  0  0  0  0  0  0
  -21.5789  -26.4290    7.9445 C   0  0  0  0  0  0  0  0  0  0  0  0
  -20.6292  -28.6278    8.2104 N   0  0  2  0  0  4  0  0  0  0  0  0
  -18.9731  -29.7001    6.7280 C   0  0  0  0  0  0  0  0  0  0  0  0
  -21.0611  -30.8801    7.2436 C   0  0  0  0  0  0  0  0  0  0  0  0
  -21.5930  -28.9782    9.2441 C   0  0  0  0  0  0  0  0  0  0  0  0
  -22.7870  -28.0752    9.0629 C   0  0  0  0  0  0  0  0  0  0  0  0
  -22.2138  -23.9926    9.9421 C   0  0  0  0  0  0  0  0  0  0  0  0
  -22.1583  -22.6235   10.2424 C   0  0  0  0  0  0  0  0  0  0  0  0
  1 17  2  0
 18  1  1  0
 19  2  1  0
  2 20  2  0
  3 19  1  0
 21  3  2  0
  5  4  2  0
  4 24  1  0
  6  5  1  0
 25  6  1  0
  6 33  2  0
 27  7  1  0
 28  7  1  6
 28  8  1  0
  8 29  1  6
  8 30  1  0
 10  9  1  0
 10 11  1  0
 14 10  2  0
 12 11  1  0
 13 12  2  0
 13 14  1  0
 17 13  1  0
 14 15  1  0
 15 16  3  0
 17 20  1  0
 18 19  2  0
 22 18  1  0
 22 21  1  0
 23 22  1  0
 24 23  1  0
 24 34  2  0
 26 25  1  6
 26 27  1  0
 26 32  1  0
 28 31  1  0
 31 32  1  0
 33 34  1  0
M  CHG  2  26   1  28   1
M  END
$$$$
