
     RDKit          3D

 34 38  0  0  0  0  0  0  0  0999 V2000
  -13.2641   -7.8841   25.7554 C   0  0  0  0  0  0  0  0  0  0  0  0
  -12.2838  -10.0068   27.4307 C   0  0  0  0  0  0  0  0  0  0  0  0
  -12.8619   -8.4174   29.2850 C   0  0  0  0  0  0  0  0  0  0  0  0
  -14.2519   -4.6539   29.8065 C   0  0  0  0  0  0  0  0  0  0  0  0
  -14.0632   -3.7508   30.8222 C   0  0  0  0  0  0  0  0  0  0  0  0
  -13.4288   -2.5644   30.5298 C   0  0  0  0  0  0  0  0  0  0  0  0
  -13.7359    1.8109   30.7079 C   0  0  0  0  0  0  0  0  0  0  0  0
  -14.5491    3.6476   32.0925 C   0  0  2  0  0  0  0  0  0  0  0  0
  -13.3144  -11.3395   20.7565 N   0  0  0  0  0  0  0  0  0  0  0  0
  -13.2818  -10.3177   21.7990 C   0  0  0  0  0  0  0  0  0  0  0  0
  -13.3736   -9.0325   21.6296 N   0  0  0  0  0  0  0  0  0  0  0  0
  -13.2292   -8.4225   22.8359 N   0  0  0  0  0  0  0  0  0  0  0  0
  -13.0432   -9.2811   23.7782 C   0  0  0  0  0  0  0  0  0  0  0  0
  -13.0823  -10.5698   23.0886 C   0  0  0  0  0  0  0  0  0  0  0  0
  -12.9852  -11.8023   23.8839 C   0  0  0  0  0  0  0  0  0  0  0  0
  -12.8981  -12.7314   24.5002 N   0  0  0  0  0  0  0  0  0  0  0  0
  -12.7976   -9.1425   25.2370 C   0  0  0  0  0  0  0  0  0  0  0  0
  -13.1885   -7.8209   27.1775 C   0  0  0  0  0  0  0  0  0  0  0  0
  -12.7403   -8.7880   27.9692 C   0  0  0  0  0  0  0  0  0  0  0  0
  -12.3568  -10.0753   26.0075 C   0  0  0  0  0  0  0  0  0  0  0  0
  -13.4197   -7.1249   29.2111 C   0  0  0  0  0  0  0  0  0  0  0  0
  -13.6155   -6.7557   27.9435 N   0  0  0  0  0  0  0  0  0  0  0  0
  -14.0710   -5.4852   27.4566 C   0  0  0  0  0  0  0  0  0  0  0  0
  -13.8313   -4.4435   28.4951 C   0  0  0  0  0  0  0  0  0  0  0  0
  -13.1691   -1.6475   31.6459 C   0  0  0  0  0  0  0  0  0  0  0  0
  -14.0193   -0.4565   31.6849 N   0  0  2  0  0  4  0  0  0  0  0  0
  -13.9559    0.3208   30.4691 C   0  0  0  0  0  0  0  0  0  0  0  0
  -14.5548    2.2541   31.7772 N   0  0  2  0  0  4  0  0  0  0  0  0
  -15.0584    4.5449   31.0099 C   0  0  0  0  0  0  0  0  0  0  0  0
  -13.2364    4.1920   32.6141 C   0  0  0  0  0  0  0  0  0  0  0  0
  -14.3513    1.5377   33.0284 C   0  0  0  0  0  0  0  0  0  0  0  0
  -13.4246    0.3850   32.7349 C   0  0  0  0  0  0  0  0  0  0  0  0
  -12.9900   -2.2730   29.2600 C   0  0  0  0  0  0  0  0  0  0  0  0
  -13.2146   -3.2464   28.2753 C   0  0  0  0  0  0  0  0  0  0  0  0
  1 17  2  0
 18  1  1  0
 19  2  1  0
  2 20  2  0
  3 19  1  0
 21  3  2  0
  5  4  2  0
  4 24  1  0
  6  5  1  0
 25  6  1  0
  6 33  2  0
 27  7  1  0
 28  7  1  6
 28  8  1  0
  8 29  1  6
  8 30  1  0
 10  9  1  0
 10 11  1  0
 14 10  2  0
 12 11  1  0
 13 12  2  0
 13 14  1  0
 17 13  1  0
 14 15  1  0
 15 16  3  0
 17 20  1  0
 18 19  2  0
 22 18  1  0
 22 21  1  0
 23 22  1  0
 24 23  1  0
 24 34  2  0
 26 25  1  6
 26 27  1  0
 26 32  1  0
 28 31  1  0
 31 32  1  0
 33 34  1  0
M  CHG  2  26   1  28   1
M  END
$$$$
