
     RDKit          3D

 34 38  0  0  0  0  0  0  0  0999 V2000
  -20.2825  -17.6511   12.0124 C   0  0  0  0  0  0  0  0  0  0  0  0
  -18.8125  -19.5662   13.5760 C   0  0  0  0  0  0  0  0  0  0  0  0
  -20.8697  -20.9685   13.2592 C   0  0  0  0  0  0  0  0  0  0  0  0
  -23.3976  -19.6996    9.0692 C   0  0  0  0  0  0  0  0  0  0  0  0
  -23.9784  -20.5351    8.1487 C   0  0  0  0  0  0  0  0  0  0  0  0
  -24.9674  -21.3911    8.5783 C   0  0  0  0  0  0  0  0  0  0  0  0
  -24.8315  -24.2215    4.5763 C   0  0  0  0  0  0  0  0  0  0  0  0
  -22.6867  -25.0423    3.7532 C   0  0  2  0  0  0  0  0  0  0  0  0
  -15.4710  -14.2206   10.7878 N   0  0  0  0  0  0  0  0  0  0  0  0
  -16.7642  -14.7834   11.1652 C   0  0  0  0  0  0  0  0  0  0  0  0
  -17.9009  -14.1549   11.2111 N   0  0  0  0  0  0  0  0  0  0  0  0
  -18.8520  -15.0078   11.6761 N   0  0  0  0  0  0  0  0  0  0  0  0
  -18.3571  -16.1689   11.9343 C   0  0  0  0  0  0  0  0  0  0  0  0
  -16.9437  -16.0309   11.5870 C   0  0  0  0  0  0  0  0  0  0  0  0
  -16.0725  -17.2115   11.6799 C   0  0  0  0  0  0  0  0  0  0  0  0
  -15.4077  -18.1062   11.7697 N   0  0  0  0  0  0  0  0  0  0  0  0
  -18.9444  -17.4171   12.4866 C   0  0  0  0  0  0  0  0  0  0  0  0
  -20.7803  -18.9294   12.4002 C   0  0  0  0  0  0  0  0  0  0  0  0
  -20.1194  -19.8277   13.1205 C   0  0  0  0  0  0  0  0  0  0  0  0
  -18.3094  -18.2879   13.1911 C   0  0  0  0  0  0  0  0  0  0  0  0
  -22.0556  -20.6677   12.5589 C   0  0  0  0  0  0  0  0  0  0  0  0
  -22.0118  -19.4381   12.0418 N   0  0  0  0  0  0  0  0  0  0  0  0
  -23.0543  -18.7362   11.3495 C   0  0  0  0  0  0  0  0  0  0  0  0
  -23.7455  -19.6719   10.4180 C   0  0  0  0  0  0  0  0  0  0  0  0
  -25.5200  -22.3289    7.5939 C   0  0  0  0  0  0  0  0  0  0  0  0
  -24.6914  -22.5465    6.4069 N   0  0  2  0  0  4  0  0  0  0  0  0
  -25.4494  -23.0111    5.2684 C   0  0  0  0  0  0  0  0  0  0  0  0
  -23.4298  -24.0448    4.4560 N   0  0  2  0  0  4  0  0  0  0  0  0
  -23.4708  -25.8299    2.7525 C   0  0  0  0  0  0  0  0  0  0  0  0
  -21.8897  -25.9928    4.6210 C   0  0  0  0  0  0  0  0  0  0  0  0
  -22.7410  -23.8170    5.7184 C   0  0  0  0  0  0  0  0  0  0  0  0
  -23.8000  -23.6558    6.7797 C   0  0  0  0  0  0  0  0  0  0  0  0
  -25.3772  -21.4220    9.8902 C   0  0  0  0  0  0  0  0  0  0  0  0
  -24.7345  -20.5420   10.7734 C   0  0  0  0  0  0  0  0  0  0  0  0
  1 17  2  0
 18  1  1  0
 19  2  1  0
  2 20  2  0
  3 19  1  0
 21  3  2  0
  5  4  2  0
  4 24  1  0
  6  5  1  0
 25  6  1  0
  6 33  2  0
 27  7  1  0
 28  7  1  1
 28  8  1  0
  8 29  1  1
  8 30  1  0
 10  9  1  0
 10 11  1  0
 14 10  2  0
 12 11  1  0
 13 12  2  0
 13 14  1  0
 17 13  1  0
 14 15  1  0
 15 16  3  0
 17 20  1  0
 18 19  2  0
 22 18  1  0
 22 21  1  0
 23 22  1  0
 24 23  1  0
 24 34  2  0
 26 25  1  1
 26 27  1  0
 26 32  1  0
 28 31  1  0
 31 32  1  0
 33 34  1  0
M  CHG  2  26   1  28   1
M  END
$$$$
