
     RDKit          3D

 34 38  0  0  0  0  0  0  0  0999 V2000
  -12.8507   -7.2835   26.1599 C   0  0  0  0  0  0  0  0  0  0  0  0
  -11.2637   -8.9033   27.9295 C   0  0  0  0  0  0  0  0  0  0  0  0
  -10.9706   -6.7430   29.1729 C   0  0  0  0  0  0  0  0  0  0  0  0
  -12.5602   -2.5119   28.7246 C   0  0  0  0  0  0  0  0  0  0  0  0
  -12.0090   -1.3529   29.2099 C   0  0  0  0  0  0  0  0  0  0  0  0
  -11.0226   -0.7407   28.4699 C   0  0  0  0  0  0  0  0  0  0  0  0
   -7.4334    1.8164   30.6393 C   0  0  0  0  0  0  0  0  0  0  0  0
   -5.1071    1.6454   29.9244 C   0  0  2  0  0  0  0  0  0  0  0  0
  -13.9477  -11.2950   21.8793 N   0  0  0  0  0  0  0  0  0  0  0  0
  -14.0421  -10.4411   23.0599 C   0  0  0  0  0  0  0  0  0  0  0  0
  -15.0742   -9.7462   23.4349 N   0  0  0  0  0  0  0  0  0  0  0  0
  -14.7395   -9.0315   24.5420 N   0  0  0  0  0  0  0  0  0  0  0  0
  -13.5172   -9.2453   24.8883 C   0  0  0  0  0  0  0  0  0  0  0  0
  -13.0354  -10.2033   23.8945 C   0  0  0  0  0  0  0  0  0  0  0  0
  -11.6754  -10.7441   24.0326 C   0  0  0  0  0  0  0  0  0  0  0  0
  -10.6376  -11.1516   24.1189 N   0  0  0  0  0  0  0  0  0  0  0  0
  -12.6651   -8.6984   25.9758 C   0  0  0  0  0  0  0  0  0  0  0  0
  -12.1685   -6.7917   27.3110 C   0  0  0  0  0  0  0  0  0  0  0  0
  -11.4318   -7.5210   28.1406 C   0  0  0  0  0  0  0  0  0  0  0  0
  -11.9440   -9.4010   26.7784 C   0  0  0  0  0  0  0  0  0  0  0  0
  -11.4936   -5.4670   28.8805 C   0  0  0  0  0  0  0  0  0  0  0  0
  -12.2134   -5.4866   27.7567 N   0  0  0  0  0  0  0  0  0  0  0  0
  -12.8225   -4.3767   27.0816 C   0  0  0  0  0  0  0  0  0  0  0  0
  -12.1741   -3.1111   27.5276 C   0  0  0  0  0  0  0  0  0  0  0  0
  -10.3938    0.4543   29.0449 C   0  0  0  0  0  0  0  0  0  0  0  0
   -9.0098    0.2784   29.4880 N   0  0  2  0  0  4  0  0  0  0  0  0
   -8.7144    0.9917   30.7088 C   0  0  0  0  0  0  0  0  0  0  0  0
   -6.4109    1.0666   30.0046 N   0  0  2  0  0  4  0  0  0  0  0  0
   -3.9833    0.6646   29.8171 C   0  0  0  0  0  0  0  0  0  0  0  0
   -4.7793    2.6632   30.9961 C   0  0  0  0  0  0  0  0  0  0  0  0
   -6.7482    0.6000   28.6672 C   0  0  0  0  0  0  0  0  0  0  0  0
   -8.2037    0.9209   28.4385 C   0  0  0  0  0  0  0  0  0  0  0  0
  -10.5888   -1.2602   27.2734 C   0  0  0  0  0  0  0  0  0  0  0  0
  -11.1961   -2.4494   26.8440 C   0  0  0  0  0  0  0  0  0  0  0  0
  1 17  2  0
 18  1  1  0
 19  2  1  0
  2 20  2  0
  3 19  1  0
 21  3  2  0
  5  4  2  0
  4 24  1  0
  6  5  1  0
 25  6  1  0
  6 33  2  0
 27  7  1  0
 28  7  1  6
 28  8  1  0
  8 29  1  1
  8 30  1  0
 10  9  1  0
 10 11  1  0
 14 10  2  0
 12 11  1  0
 13 12  2  0
 13 14  1  0
 17 13  1  0
 14 15  1  0
 15 16  3  0
 17 20  1  0
 18 19  2  0
 22 18  1  0
 22 21  1  0
 23 22  1  0
 24 23  1  0
 24 34  2  0
 26 25  1  6
 26 27  1  0
 26 32  1  0
 28 31  1  0
 31 32  1  0
 33 34  1  0
M  CHG  2  26   1  28   1
M  END
$$$$
