
     RDKit          3D

 34 38  0  0  0  0  0  0  0  0999 V2000
  -21.4121  -20.8208   11.5804 C   0  0  0  0  0  0  0  0  0  0  0  0
  -23.7031  -19.2719   10.7890 C   0  0  0  0  0  0  0  0  0  0  0  0
  -24.7818  -21.5258   10.5544 C   0  0  0  0  0  0  0  0  0  0  0  0
  -22.5092  -26.0958   10.5360 C   0  0  0  0  0  0  0  0  0  0  0  0
  -22.6223  -27.0561    9.5625 C   0  0  0  0  0  0  0  0  0  0  0  0
  -22.3374  -26.7031    8.2626 C   0  0  0  0  0  0  0  0  0  0  0  0
  -19.4767  -29.0647    5.8193 C   0  0  0  0  0  0  0  0  0  0  0  0
  -18.9975  -31.3537    5.1249 C   0  0  2  0  0  0  0  0  0  0  0  0
  -18.2316  -15.9143   13.2827 N   0  0  0  0  0  0  0  0  0  0  0  0
  -18.7998  -17.2082   12.9160 C   0  0  0  0  0  0  0  0  0  0  0  0
  -18.1876  -18.3546   12.9214 N   0  0  0  0  0  0  0  0  0  0  0  0
  -19.0372  -19.3046   12.4479 N   0  0  0  0  0  0  0  0  0  0  0  0
  -20.1802  -18.7996   12.1344 C   0  0  0  0  0  0  0  0  0  0  0  0
  -20.0335  -17.3801   12.4522 C   0  0  0  0  0  0  0  0  0  0  0  0
  -21.1962  -16.4945   12.2939 C   0  0  0  0  0  0  0  0  0  0  0  0
  -22.0734  -15.8092   12.1872 N   0  0  0  0  0  0  0  0  0  0  0  0
  -21.4158  -19.3823   11.5501 C   0  0  0  0  0  0  0  0  0  0  0  0
  -22.6638  -21.3755   11.1830 C   0  0  0  0  0  0  0  0  0  0  0  0
  -23.7330  -20.6798   10.8147 C   0  0  0  0  0  0  0  0  0  0  0  0
  -22.4525  -18.7113   11.1854 C   0  0  0  0  0  0  0  0  0  0  0  0
  -24.2382  -22.8045   10.7925 C   0  0  0  0  0  0  0  0  0  0  0  0
  -22.9599  -22.7230   11.1675 N   0  0  0  0  0  0  0  0  0  0  0  0
  -22.0413  -23.7995   11.4042 C   0  0  0  0  0  0  0  0  0  0  0  0
  -22.1293  -24.7792   10.2846 C   0  0  0  0  0  0  0  0  0  0  0  0
  -22.5395  -27.7245    7.2283 C   0  0  0  0  0  0  0  0  0  0  0  0
  -21.5292  -28.7832    7.1920 N   0  0  2  0  0  4  0  0  0  0  0  0
  -20.2023  -28.2860    6.9117 C   0  0  0  0  0  0  0  0  0  0  0  0
  -19.6753  -30.4561    6.0059 N   0  0  2  0  0  4  0  0  0  0  0  0
  -19.1962  -32.8057    5.4228 C   0  0  0  0  0  0  0  0  0  0  0  0
  -17.5210  -31.0830    4.9288 C   0  0  0  0  0  0  0  0  0  0  0  0
  -21.0720  -30.8667    6.0336 C   0  0  0  0  0  0  0  0  0  0  0  0
  -21.9048  -29.6097    6.0344 C   0  0  0  0  0  0  0  0  0  0  0  0
  -21.9469  -25.4280    7.9289 C   0  0  0  0  0  0  0  0  0  0  0  0
  -21.8578  -24.5000    8.9770 C   0  0  0  0  0  0  0  0  0  0  0  0
  1 17  2  0
 18  1  1  0
 19  2  1  0
  2 20  2  0
  3 19  1  0
 21  3  2  0
  5  4  2  0
  4 24  1  0
  6  5  1  0
 25  6  1  0
  6 33  2  0
 27  7  1  0
 28  7  1  6
 28  8  1  0
  8 29  1  1
  8 30  1  0
 10  9  1  0
 10 11  1  0
 14 10  2  0
 12 11  1  0
 13 12  2  0
 13 14  1  0
 17 13  1  0
 14 15  1  0
 15 16  3  0
 17 20  1  0
 18 19  2  0
 22 18  1  0
 22 21  1  0
 23 22  1  0
 24 23  1  0
 24 34  2  0
 26 25  1  6
 26 27  1  0
 26 32  1  0
 28 31  1  0
 31 32  1  0
 33 34  1  0
M  CHG  2  26   1  28   1
M  END
$$$$
