
     RDKit          3D

 34 38  0  0  0  0  0  0  0  0999 V2000
  -13.3960   -7.6323   26.8228 C   0  0  0  0  0  0  0  0  0  0  0  0
  -11.2725   -9.2264   27.9289 C   0  0  0  0  0  0  0  0  0  0  0  0
  -12.0437   -8.2258   30.0975 C   0  0  0  0  0  0  0  0  0  0  0  0
  -13.4399   -4.1785   30.1277 C   0  0  0  0  0  0  0  0  0  0  0  0
  -12.8581   -2.9383   30.2052 C   0  0  0  0  0  0  0  0  0  0  0  0
  -12.9893   -2.0886   29.1300 C   0  0  0  0  0  0  0  0  0  0  0  0
   -8.7075   -0.5586   28.7152 C   0  0  0  0  0  0  0  0  0  0  0  0
   -7.4672    0.9855   27.2908 C   0  0  2  0  0  0  0  0  0  0  0  0
  -13.6555  -10.5799   21.5930 N   0  0  0  0  0  0  0  0  0  0  0  0
  -13.5314   -9.5959   22.6645 C   0  0  0  0  0  0  0  0  0  0  0  0
  -13.7576   -8.3192   22.5761 N   0  0  0  0  0  0  0  0  0  0  0  0
  -13.4614   -7.7405   23.7701 N   0  0  0  0  0  0  0  0  0  0  0  0
  -13.0471   -8.6108   24.6249 C   0  0  0  0  0  0  0  0  0  0  0  0
  -13.0952   -9.8731   23.8889 C   0  0  0  0  0  0  0  0  0  0  0  0
  -12.7619  -11.1185   24.5954 C   0  0  0  0  0  0  0  0  0  0  0  0
  -12.5125  -12.0572   25.1497 N   0  0  0  0  0  0  0  0  0  0  0  0
  -12.5693   -8.5008   26.0276 C   0  0  0  0  0  0  0  0  0  0  0  0
  -13.0442   -7.6625   28.2040 C   0  0  0  0  0  0  0  0  0  0  0  0
  -12.0692   -8.3903   28.7352 C   0  0  0  0  0  0  0  0  0  0  0  0
  -11.6199   -9.1997   26.5454 C   0  0  0  0  0  0  0  0  0  0  0  0
  -13.0949   -7.3177   30.3375 C   0  0  0  0  0  0  0  0  0  0  0  0
  -13.7005   -6.9693   29.2002 N   0  0  0  0  0  0  0  0  0  0  0  0
  -14.7428   -6.0002   29.0187 C   0  0  0  0  0  0  0  0  0  0  0  0
  -14.1511   -4.6324   29.0190 C   0  0  0  0  0  0  0  0  0  0  0  0
  -12.2944   -0.7980   29.2036 C   0  0  0  0  0  0  0  0  0  0  0  0
  -11.1553   -0.6508   28.2960 N   0  0  2  0  0  4  0  0  0  0  0  0
   -9.9897   -1.3843   28.7317 C   0  0  0  0  0  0  0  0  0  0  0  0
   -8.6437    0.2095   27.5252 N   0  0  2  0  0  4  0  0  0  0  0  0
   -7.3854    2.2629   28.0642 C   0  0  0  0  0  0  0  0  0  0  0  0
   -7.1483    1.2622   25.8370 C   0  0  0  0  0  0  0  0  0  0  0  0
   -9.7810    1.0949   27.3182 C   0  0  0  0  0  0  0  0  0  0  0  0
  -10.7952    0.7727   28.3865 C   0  0  0  0  0  0  0  0  0  0  0  0
  -13.6823   -2.4537   28.0003 C   0  0  0  0  0  0  0  0  0  0  0  0
  -14.2457   -3.7383   27.9927 C   0  0  0  0  0  0  0  0  0  0  0  0
  1 17  2  0
 18  1  1  0
 19  2  1  0
  2 20  2  0
  3 19  1  0
 21  3  2  0
  5  4  2  0
  4 24  1  0
  6  5  1  0
 25  6  1  0
  6 33  2  0
 27  7  1  0
 28  7  1  1
 28  8  1  0
  8 29  1  1
  8 30  1  0
 10  9  1  0
 10 11  1  0
 14 10  2  0
 12 11  1  0
 13 12  2  0
 13 14  1  0
 17 13  1  0
 14 15  1  0
 15 16  3  0
 17 20  1  0
 18 19  2  0
 22 18  1  0
 22 21  1  0
 23 22  1  0
 24 23  1  0
 24 34  2  0
 26 25  1  1
 26 27  1  0
 26 32  1  0
 28 31  1  0
 31 32  1  0
 33 34  1  0
M  CHG  2  26   1  28   1
M  END
$$$$
