
     RDKit          3D

 34 38  0  0  0  0  0  0  0  0999 V2000
  -11.7032   -7.1606   27.2123 C   0  0  0  0  0  0  0  0  0  0  0  0
  -14.5271   -6.8230   26.7819 C   0  0  0  0  0  0  0  0  0  0  0  0
  -14.1644   -4.6734   28.0255 C   0  0  0  0  0  0  0  0  0  0  0  0
   -9.6087   -2.9509   27.5284 C   0  0  0  0  0  0  0  0  0  0  0  0
   -9.1982   -1.6570   27.3283 C   0  0  0  0  0  0  0  0  0  0  0  0
   -9.3445   -0.7596   28.3621 C   0  0  0  0  0  0  0  0  0  0  0  0
   -5.9177    1.3114   29.9399 C   0  0  0  0  0  0  0  0  0  0  0  0
   -4.1910    2.9676   29.4630 C   0  0  2  0  0  0  0  0  0  0  0  0
  -11.2606  -12.6151   24.6689 N   0  0  0  0  0  0  0  0  0  0  0  0
  -11.1882  -11.2014   25.0265 C   0  0  0  0  0  0  0  0  0  0  0  0
  -10.1450  -10.4312   24.9405 N   0  0  0  0  0  0  0  0  0  0  0  0
  -10.4657   -9.2061   25.4350 N   0  0  0  0  0  0  0  0  0  0  0  0
  -11.6879   -9.1676   25.8406 C   0  0  0  0  0  0  0  0  0  0  0  0
  -12.1899  -10.5126   25.5639 C   0  0  0  0  0  0  0  0  0  0  0  0
  -13.6050  -10.8095   25.8294 C   0  0  0  0  0  0  0  0  0  0  0  0
  -14.6863  -11.0265   26.0146 N   0  0  0  0  0  0  0  0  0  0  0  0
  -12.5057   -8.1069   26.4839 C   0  0  0  0  0  0  0  0  0  0  0  0
  -12.4645   -6.0504   27.6815 C   0  0  0  0  0  0  0  0  0  0  0  0
  -13.7671   -5.8748   27.4939 C   0  0  0  0  0  0  0  0  0  0  0  0
  -13.7702   -7.9366   26.3103 C   0  0  0  0  0  0  0  0  0  0  0  0
  -12.9737   -4.1431   28.5625 C   0  0  0  0  0  0  0  0  0  0  0  0
  -11.9447   -4.9695   28.3635 N   0  0  0  0  0  0  0  0  0  0  0  0
  -10.5993   -4.8318   28.8425 C   0  0  0  0  0  0  0  0  0  0  0  0
  -10.1733   -3.4092   28.7168 C   0  0  0  0  0  0  0  0  0  0  0  0
   -8.9706    0.6352   28.1003 C   0  0  0  0  0  0  0  0  0  0  0  0
   -7.5317    0.9043   28.0946 N   0  0  2  0  0  4  0  0  0  0  0  0
   -6.8473    0.3322   29.2307 C   0  0  0  0  0  0  0  0  0  0  0  0
   -5.1810    2.0556   28.9839 N   0  0  2  0  0  4  0  0  0  0  0  0
   -3.5601    2.5919   30.7659 C   0  0  0  0  0  0  0  0  0  0  0  0
   -4.6143    4.4201   29.5151 C   0  0  0  0  0  0  0  0  0  0  0  0
   -6.0007    2.7868   28.0282 C   0  0  0  0  0  0  0  0  0  0  0  0
   -7.4303    2.3633   28.2533 C   0  0  0  0  0  0  0  0  0  0  0  0
   -9.8839   -1.1309   29.5708 C   0  0  0  0  0  0  0  0  0  0  0  0
  -10.2843   -2.4690   29.6993 C   0  0  0  0  0  0  0  0  0  0  0  0
  1 17  2  0
 18  1  1  0
 19  2  1  0
  2 20  2  0
  3 19  1  0
 21  3  2  0
  5  4  2  0
  4 24  1  0
  6  5  1  0
 25  6  1  0
  6 33  2  0
 27  7  1  0
 28  7  1  1
 28  8  1  0
  8 29  1  1
  8 30  1  0
 10  9  1  0
 10 11  1  0
 14 10  2  0
 12 11  1  0
 13 12  2  0
 13 14  1  0
 17 13  1  0
 14 15  1  0
 15 16  3  0
 17 20  1  0
 18 19  2  0
 22 18  1  0
 22 21  1  0
 23 22  1  0
 24 23  1  0
 24 34  2  0
 26 25  1  1
 26 27  1  0
 26 32  1  0
 28 31  1  0
 31 32  1  0
 33 34  1  0
M  CHG  2  26   1  28   1
M  END
$$$$
