
     RDKit          3D

 34 38  0  0  0  0  0  0  0  0999 V2000
  -19.0131  -16.9158   14.2861 C   0  0  0  0  0  0  0  0  0  0  0  0
  -19.7494  -17.4769   17.0095 C   0  0  0  0  0  0  0  0  0  0  0  0
  -21.8467  -18.3632   15.9537 C   0  0  0  0  0  0  0  0  0  0  0  0
  -21.8874  -19.9787   11.5972 C   0  0  0  0  0  0  0  0  0  0  0  0
  -22.7176  -20.9210   11.0446 C   0  0  0  0  0  0  0  0  0  0  0  0
  -23.9738  -20.5271   10.6419 C   0  0  0  0  0  0  0  0  0  0  0  0
  -26.2241  -22.4312    6.8718 C   0  0  0  0  0  0  0  0  0  0  0  0
  -25.5421  -24.2297    5.3713 C   0  0  2  0  0  0  0  0  0  0  0  0
  -13.7738  -14.1936   15.4729 N   0  0  0  0  0  0  0  0  0  0  0  0
  -14.8404  -15.1061   15.0710 C   0  0  0  0  0  0  0  0  0  0  0  0
  -14.8917  -15.8067   13.9776 N   0  0  0  0  0  0  0  0  0  0  0  0
  -16.0763  -16.4729   13.9421 N   0  0  0  0  0  0  0  0  0  0  0  0
  -16.7913  -16.2172   14.9829 C   0  0  0  0  0  0  0  0  0  0  0  0
  -15.9620  -15.2961   15.7583 C   0  0  0  0  0  0  0  0  0  0  0  0
  -16.4385  -14.8514   17.0760 C   0  0  0  0  0  0  0  0  0  0  0  0
  -16.8149  -14.5267   18.0777 N   0  0  0  0  0  0  0  0  0  0  0  0
  -18.1499  -16.6458   15.4051 C   0  0  0  0  0  0  0  0  0  0  0  0
  -20.2548  -17.4917   14.6847 C   0  0  0  0  0  0  0  0  0  0  0  0
  -20.6145  -17.7591   15.9345 C   0  0  0  0  0  0  0  0  0  0  0  0
  -18.5052  -16.8999   16.6164 C   0  0  0  0  0  0  0  0  0  0  0  0
  -22.2019  -18.4262   14.5909 C   0  0  0  0  0  0  0  0  0  0  0  0
  -21.2494  -17.8984   13.8192 N   0  0  0  0  0  0  0  0  0  0  0  0
  -21.2804  -17.6910   12.3998 C   0  0  0  0  0  0  0  0  0  0  0  0
  -22.2447  -18.6448   11.7822 C   0  0  0  0  0  0  0  0  0  0  0  0
  -24.8716  -21.5668   10.1253 C   0  0  0  0  0  0  0  0  0  0  0  0
  -24.6463  -21.9479    8.7300 N   0  0  2  0  0  4  0  0  0  0  0  0
  -25.6352  -21.4013    7.8302 C   0  0  0  0  0  0  0  0  0  0  0  0
  -25.1924  -23.2559    6.3566 N   0  0  2  0  0  4  0  0  0  0  0  0
  -26.3900  -23.7206    4.2494 C   0  0  0  0  0  0  0  0  0  0  0  0
  -26.1424  -25.5119    5.9071 C   0  0  0  0  0  0  0  0  0  0  0  0
  -24.4092  -23.9458    7.3719 C   0  0  0  0  0  0  0  0  0  0  0  0
  -24.8434  -23.4056    8.7111 C   0  0  0  0  0  0  0  0  0  0  0  0
  -24.4031  -19.2285   10.7799 C   0  0  0  0  0  0  0  0  0  0  0  0
  -23.5006  -18.3230   11.3571 C   0  0  0  0  0  0  0  0  0  0  0  0
  1 17  2  0
 18  1  1  0
 19  2  1  0
  2 20  2  0
  3 19  1  0
 21  3  2  0
  5  4  2  0
  4 24  1  0
  6  5  1  0
 25  6  1  0
  6 33  2  0
 27  7  1  0
 28  7  1  1
 28  8  1  0
  8 29  1  6
  8 30  1  0
 10  9  1  0
 10 11  1  0
 14 10  2  0
 12 11  1  0
 13 12  2  0
 13 14  1  0
 17 13  1  0
 14 15  1  0
 15 16  3  0
 17 20  1  0
 18 19  2  0
 22 18  1  0
 22 21  1  0
 23 22  1  0
 24 23  1  0
 24 34  2  0
 26 25  1  1
 26 27  1  0
 26 32  1  0
 28 31  1  0
 31 32  1  0
 33 34  1  0
M  CHG  2  26   1  28   1
M  END
$$$$
