
     RDKit          3D

 34 38  0  0  0  0  0  0  0  0999 V2000
  -21.0363  -19.6549   12.1760 C   0  0  0  0  0  0  0  0  0  0  0  0
  -22.8339  -17.9549   13.6432 C   0  0  0  0  0  0  0  0  0  0  0  0
  -24.3640  -19.9390   13.4991 C   0  0  0  0  0  0  0  0  0  0  0  0
  -24.4273  -23.7213   11.2428 C   0  0  0  0  0  0  0  0  0  0  0  0
  -25.2020  -24.8408   11.4138 C   0  0  0  0  0  0  0  0  0  0  0  0
  -24.7004  -25.8698   12.1786 C   0  0  0  0  0  0  0  0  0  0  0  0
  -26.6495  -30.0394   10.5079 C   0  0  0  0  0  0  0  0  0  0  0  0
  -25.6630  -31.1087    8.5495 C   0  0  2  0  0  0  0  0  0  0  0  0
  -16.6008  -15.6275   11.5182 N   0  0  0  0  0  0  0  0  0  0  0  0
  -17.4565  -16.7513   11.8877 C   0  0  0  0  0  0  0  0  0  0  0  0
  -17.0974  -17.9947   12.0052 N   0  0  0  0  0  0  0  0  0  0  0  0
  -18.1968  -18.7404   12.2942 N   0  0  0  0  0  0  0  0  0  0  0  0
  -19.2559  -18.0102   12.3628 C   0  0  0  0  0  0  0  0  0  0  0  0
  -18.7661  -16.6590   12.0945 C   0  0  0  0  0  0  0  0  0  0  0  0
  -19.7092  -15.5342   12.1755 C   0  0  0  0  0  0  0  0  0  0  0  0
  -20.4134  -14.6671   12.2288 N   0  0  0  0  0  0  0  0  0  0  0  0
  -20.6872  -18.3269   12.6057 C   0  0  0  0  0  0  0  0  0  0  0  0
  -22.3578  -20.0217   12.5652 C   0  0  0  0  0  0  0  0  0  0  0  0
  -23.2031  -19.2536   13.2422 C   0  0  0  0  0  0  0  0  0  0  0  0
  -21.5123  -17.5823   13.2558 C   0  0  0  0  0  0  0  0  0  0  0  0
  -24.1413  -21.1962   12.9014 C   0  0  0  0  0  0  0  0  0  0  0  0
  -22.9356  -21.2528   12.3319 N   0  0  0  0  0  0  0  0  0  0  0  0
  -22.3815  -22.3185   11.5471 C   0  0  0  0  0  0  0  0  0  0  0  0
  -23.1566  -23.5674   11.7928 C   0  0  0  0  0  0  0  0  0  0  0  0
  -25.5128  -27.0875   12.2843 C   0  0  0  0  0  0  0  0  0  0  0  0
  -25.7905  -27.7635   11.0158 N   0  0  2  0  0  4  0  0  0  0  0  0
  -26.9233  -28.6566   11.0899 C   0  0  0  0  0  0  0  0  0  0  0  0
  -25.9363  -29.9169    9.2885 N   0  0  2  0  0  4  0  0  0  0  0  0
  -25.5966  -30.9338    7.0657 C   0  0  0  0  0  0  0  0  0  0  0  0
  -26.5492  -32.2929    8.8723 C   0  0  0  0  0  0  0  0  0  0  0  0
  -24.6793  -29.1900    9.3964 C   0  0  0  0  0  0  0  0  0  0  0  0
  -24.6148  -28.6185   10.7904 C   0  0  0  0  0  0  0  0  0  0  0  0
  -23.4593  -25.7961   12.7651 C   0  0  0  0  0  0  0  0  0  0  0  0
  -22.7241  -24.6225   12.5421 C   0  0  0  0  0  0  0  0  0  0  0  0
  1 17  2  0
 18  1  1  0
 19  2  1  0
  2 20  2  0
  3 19  1  0
 21  3  2  0
  5  4  2  0
  4 24  1  0
  6  5  1  0
 25  6  1  0
  6 33  2  0
 27  7  1  0
 28  7  1  1
 28  8  1  0
  8 29  1  6
  8 30  1  0
 10  9  1  0
 10 11  1  0
 14 10  2  0
 12 11  1  0
 13 12  2  0
 13 14  1  0
 17 13  1  0
 14 15  1  0
 15 16  3  0
 17 20  1  0
 18 19  2  0
 22 18  1  0
 22 21  1  0
 23 22  1  0
 24 23  1  0
 24 34  2  0
 26 25  1  1
 26 27  1  0
 26 32  1  0
 28 31  1  0
 31 32  1  0
 33 34  1  0
M  CHG  2  26   1  28   1
M  END
$$$$
