
     RDKit          3D

 31 33  0  0  0  0  0  0  0  0999 V2000
  -39.8874  -46.8539   21.3876 C   0  0  0  0  0  0  0  0  0  0  0  0
  -38.9203  -43.3161   22.4330 C   0  0  1  0  0  0  0  0  0  0  0  0
  -38.7790  -45.3235   19.9339 C   0  0  0  0  0  0  0  0  0  0  0  0
  -37.5633  -44.9606   19.3966 C   0  0  0  0  0  0  0  0  0  0  0  0
  -37.3556  -44.6257   18.0838 C   0  0  0  0  0  0  0  0  0  0  0  0
  -35.3699  -44.9672   16.5562 C   0  0  0  0  0  0  0  0  0  0  0  0
  -38.9885  -45.6050   21.3110 C   0  0  1  0  0  0  0  0  0  0  0  0
  -33.9314  -44.9886   16.4694 C   0  0  0  0  0  0  0  0  0  0  0  0
  -31.9454  -43.8207   15.8873 C   0  0  0  0  0  0  0  0  0  0  0  0
  -31.1287  -44.8301   16.3358 C   0  0  0  0  0  0  0  0  0  0  0  0
  -31.7266  -45.9411   16.8606 C   0  0  0  0  0  0  0  0  0  0  0  0
  -33.1333  -45.9950   16.9147 C   0  0  0  0  0  0  0  0  0  0  0  0
  -38.4501  -44.6482   17.2196 C   0  0  0  0  0  0  0  0  0  0  0  0
  -39.6926  -45.0058   17.7196 C   0  0  0  0  0  0  0  0  0  0  0  0
  -39.8673  -45.3369   19.0383 C   0  0  0  0  0  0  0  0  0  0  0  0
  -38.1567  -46.0914   23.5621 C   0  0  0  0  0  0  0  0  0  0  0  0
  -39.3519  -45.4979   24.1521 C   0  0  0  0  0  0  0  0  0  0  0  0
  -39.7423  -44.4902   22.0537 C   0  0  1  0  0  0  0  0  0  0  0  0
  -37.8014  -43.7873   23.1687 F   0  0  0  0  0  0  0  0  0  0  0  0
  -38.3937  -42.5926   21.3658 F   0  0  0  0  0  0  0  0  0  0  0  0
  -39.4941  -42.3726   23.2471 F   0  0  0  0  0  0  0  0  0  0  0  0
  -41.1129  -45.6756   19.4512 F   0  0  0  0  0  0  0  0  0  0  0  0
  -36.1189  -44.2598   17.4974 N   0  0  0  0  0  0  0  0  0  0  0  0
  -33.2728  -43.8908   15.9482 N   0  0  0  0  0  0  0  0  0  0  0  0
  -37.8457  -45.8410   22.1706 N   0  0  0  0  0  0  0  0  0  0  0  0
  -37.3782  -46.8311   24.2864 N   0  0  0  0  0  0  0  0  0  0  0  0
  -35.9643  -45.6709   15.6671 O   0  0  0  0  0  0  0  0  0  0  0  0
  -40.2370  -45.0419   23.2528 O   0  0  0  0  0  0  0  0  0  0  0  0
  -29.3681  -44.6840   16.2319 Cl  0  0  0  0  0  0  0  0  0  0  0  0
  -33.8003  -47.5106   17.5429 Cl  0  0  0  0  0  0  0  0  0  0  0  0
  -36.6113  -47.3421   23.8090 H   0  0  0  0  0  0  0  0  0  0  0  0
  7  1  1  6
 18  2  1  0
  2 19  1  1
  2 20  1  0
  2 21  1  0
  3  4  2  0
  7  3  1  0
  3 15  1  0
  4  5  1  0
  5 13  2  0
  5 23  1  0
  6  8  1  0
 23  6  1  0
  6 27  2  0
  7 18  1  0
 25  7  1  0
  8 12  1  0
  8 24  2  0
  9 10  2  0
 24  9  1  0
 11 10  1  0
 10 29  1  0
 12 11  2  0
 12 30  1  0
 14 13  1  0
 15 14  2  0
 15 22  1  0
 16 17  1  0
 16 25  1  0
 16 26  2  0
 17 28  1  0
 18 28  1  1
 26 31  1  0
M  END
$$$$
