
     RDKit          3D

 31 33  0  0  0  0  0  0  0  0999 V2000
  -40.7672  -46.5032   20.7939 C   0  0  0  0  0  0  0  0  0  0  0  0
  -39.3282  -43.2656   22.1910 C   0  0  1  0  0  0  0  0  0  0  0  0
  -38.9133  -45.3700   19.7921 C   0  0  0  0  0  0  0  0  0  0  0  0
  -37.5313  -45.3100   19.6171 C   0  0  0  0  0  0  0  0  0  0  0  0
  -36.9151  -45.1619   18.4004 C   0  0  0  0  0  0  0  0  0  0  0  0
  -34.8769  -45.0806   17.0082 C   0  0  0  0  0  0  0  0  0  0  0  0
  -39.5209  -45.5772   21.1051 C   0  0  1  0  0  0  0  0  0  0  0  0
  -33.5131  -45.3438   16.6739 C   0  0  0  0  0  0  0  0  0  0  0  0
  -31.4894  -46.3575   17.4232 C   0  0  0  0  0  0  0  0  0  0  0  0
  -30.8489  -46.0432   16.2397 C   0  0  0  0  0  0  0  0  0  0  0  0
  -31.5599  -45.3752   15.2804 C   0  0  0  0  0  0  0  0  0  0  0  0
  -32.9019  -45.0229   15.5007 C   0  0  0  0  0  0  0  0  0  0  0  0
  -37.7087  -45.0661   17.2786 C   0  0  0  0  0  0  0  0  0  0  0  0
  -39.0795  -45.1199   17.4050 C   0  0  0  0  0  0  0  0  0  0  0  0
  -39.6826  -45.2696   18.6473 C   0  0  0  0  0  0  0  0  0  0  0  0
  -38.7370  -46.1251   23.3566 C   0  0  0  0  0  0  0  0  0  0  0  0
  -39.8921  -45.3722   23.9199 C   0  0  0  0  0  0  0  0  0  0  0  0
  -40.1262  -44.4386   21.8020 C   0  0  1  0  0  0  0  0  0  0  0  0
  -38.0580  -43.7813   22.5776 F   0  0  0  0  0  0  0  0  0  0  0  0
  -39.0424  -42.3506   21.2337 F   0  0  0  0  0  0  0  0  0  0  0  0
  -39.7549  -42.6490   23.3760 F   0  0  0  0  0  0  0  0  0  0  0  0
  -41.0286  -45.2821   18.7697 F   0  0  0  0  0  0  0  0  0  0  0  0
  -35.4706  -45.1071   18.2932 N   0  0  0  0  0  0  0  0  0  0  0  0
  -32.7685  -46.0109   17.6076 N   0  0  0  0  0  0  0  0  0  0  0  0
  -38.7564  -46.4164   21.9798 N   0  0  0  0  0  0  0  0  0  0  0  0
  -37.7877  -46.4695   24.1503 N   0  0  0  0  0  0  0  0  0  0  0  0
  -35.7027  -44.7742   16.0528 O   0  0  0  0  0  0  0  0  0  0  0  0
  -40.7702  -44.9478   22.9524 O   0  0  0  0  0  0  0  0  0  0  0  0
  -29.1773  -46.5012   16.0082 Cl  0  0  0  0  0  0  0  0  0  0  0  0
  -33.6830  -44.1474   14.2288 Cl  0  0  0  0  0  0  0  0  0  0  0  0
  -37.8404  -47.2027   24.8693 H   0  0  0  0  0  0  0  0  0  0  0  0
  1  7  1  6
 18  2  1  0
  2 19  1  1
  2 20  1  0
  2 21  1  0
  3  4  2  0
  7  3  1  6
  3 15  1  0
  4  5  1  0
  5 13  2  0
  5 23  1  0
  6  8  1  0
 23  6  1  0
  6 27  2  0
  7 18  1  0
 25  7  1  0
  8 12  1  0
  8 24  2  0
  9 10  2  0
 24  9  1  0
 11 10  1  0
 10 29  1  0
 12 11  2  0
 12 30  1  0
 14 13  1  0
 15 14  2  0
 15 22  1  0
 16 17  1  0
 16 25  1  0
 16 26  2  0
 17 28  1  6
 18 28  1  1
 26 31  1  0
M  END
$$$$
