
     RDKit          3D

 31 33  0  0  0  0  0  0  0  0999 V2000
  -40.5066  -46.2806   21.1854 C   0  0  0  0  0  0  0  0  0  0  0  0
  -38.3837  -43.2290   22.0137 C   0  0  1  0  0  0  0  0  0  0  0  0
  -38.8130  -45.4425   19.7176 C   0  0  0  0  0  0  0  0  0  0  0  0
  -37.6171  -45.9229   19.1858 C   0  0  0  0  0  0  0  0  0  0  0  0
  -37.3080  -45.9080   17.8492 C   0  0  0  0  0  0  0  0  0  0  0  0
  -35.1457  -45.5472   16.7121 C   0  0  0  0  0  0  0  0  0  0  0  0
  -39.1158  -45.5246   21.1451 C   0  0  1  0  0  0  0  0  0  0  0  0
  -33.7186  -45.5525   16.7786 C   0  0  0  0  0  0  0  0  0  0  0  0
  -31.8189  -46.6868   17.6668 C   0  0  0  0  0  0  0  0  0  0  0  0
  -30.9539  -45.8280   17.0155 C   0  0  0  0  0  0  0  0  0  0  0  0
  -31.4923  -44.8323   16.2469 C   0  0  0  0  0  0  0  0  0  0  0  0
  -32.8853  -44.6943   16.1289 C   0  0  0  0  0  0  0  0  0  0  0  0
  -38.2355  -45.3863   16.9746 C   0  0  0  0  0  0  0  0  0  0  0  0
  -39.4308  -44.8996   17.4567 C   0  0  0  0  0  0  0  0  0  0  0  0
  -39.7229  -44.9238   18.8145 C   0  0  0  0  0  0  0  0  0  0  0  0
  -37.8994  -46.1057   23.1864 C   0  0  0  0  0  0  0  0  0  0  0  0
  -38.7854  -45.1852   23.9520 C   0  0  0  0  0  0  0  0  0  0  0  0
  -39.3919  -44.2933   21.8908 C   0  0  1  0  0  0  0  0  0  0  0  0
  -37.3020  -43.8117   22.7344 F   0  0  0  0  0  0  0  0  0  0  0  0
  -37.8166  -42.7620   20.8755 F   0  0  0  0  0  0  0  0  0  0  0  0
  -38.7580  -42.1801   22.8658 F   0  0  0  0  0  0  0  0  0  0  0  0
  -40.8802  -44.4091   19.2860 F   0  0  0  0  0  0  0  0  0  0  0  0
  -36.0430  -46.4253   17.3663 N   0  0  0  0  0  0  0  0  0  0  0  0
  -33.1418  -46.5338   17.5373 N   0  0  0  0  0  0  0  0  0  0  0  0
  -38.2788  -46.4334   21.8713 N   0  0  0  0  0  0  0  0  0  0  0  0
  -36.8411  -46.5523   23.7611 N   0  0  0  0  0  0  0  0  0  0  0  0
  -35.7300  -44.6465   15.9800 O   0  0  0  0  0  0  0  0  0  0  0  0
  -39.8059  -44.6744   23.1873 O   0  0  0  0  0  0  0  0  0  0  0  0
  -29.2266  -46.0368   17.1907 Cl  0  0  0  0  0  0  0  0  0  0  0  0
  -33.4452  -43.3744   15.1600 Cl  0  0  0  0  0  0  0  0  0  0  0  0
  -36.8142  -47.1027   24.6293 H   0  0  0  0  0  0  0  0  0  0  0  0
  1  7  1  6
 18  2  1  0
  2 19  1  1
  2 20  1  0
  2 21  1  0
  3  4  2  0
  7  3  1  6
  3 15  1  0
  4  5  1  0
  5 13  2  0
  5 23  1  0
  6  8  1  0
 23  6  1  0
  6 27  2  0
  7 18  1  0
 25  7  1  0
  8 12  1  0
  8 24  2  0
  9 10  2  0
 24  9  1  0
 11 10  1  0
 10 29  1  0
 12 11  2  0
 12 30  1  0
 14 13  1  0
 15 14  2  0
 15 22  1  0
 16 17  1  0
 16 25  1  0
 16 26  2  0
 17 28  1  6
 18 28  1  1
 26 31  1  0
M  END
$$$$
