
     RDKit          3D

 31 33  0  0  0  0  0  0  0  0999 V2000
  -40.4772  -46.2300   20.8979 C   0  0  0  0  0  0  0  0  0  0  0  0
  -38.2812  -43.2807   21.8902 C   0  0  1  0  0  0  0  0  0  0  0  0
  -38.6526  -45.4624   19.5539 C   0  0  0  0  0  0  0  0  0  0  0  0
  -37.4066  -45.9092   19.1159 C   0  0  0  0  0  0  0  0  0  0  0  0
  -37.0028  -45.9003   17.8048 C   0  0  0  0  0  0  0  0  0  0  0  0
  -34.9212  -45.6239   16.5050 C   0  0  0  0  0  0  0  0  0  0  0  0
  -39.0545  -45.5372   20.9571 C   0  0  1  0  0  0  0  0  0  0  0  0
  -33.4973  -45.5526   16.4142 C   0  0  0  0  0  0  0  0  0  0  0  0
  -31.4548  -46.6124   17.0382 C   0  0  0  0  0  0  0  0  0  0  0  0
  -30.7130  -45.6831   16.3339 C   0  0  0  0  0  0  0  0  0  0  0  0
  -31.3840  -44.6906   15.6732 C   0  0  0  0  0  0  0  0  0  0  0  0
  -32.7868  -44.6257   15.7148 C   0  0  0  0  0  0  0  0  0  0  0  0
  -37.8813  -45.4203   16.8587 C   0  0  0  0  0  0  0  0  0  0  0  0
  -39.1233  -44.9678   17.2468 C   0  0  0  0  0  0  0  0  0  0  0  0
  -39.5114  -44.9852   18.5805 C   0  0  0  0  0  0  0  0  0  0  0  0
  -38.0060  -46.1815   23.0712 C   0  0  0  0  0  0  0  0  0  0  0  0
  -38.8999  -45.2254   23.7823 C   0  0  0  0  0  0  0  0  0  0  0  0
  -39.3252  -44.2980   21.6917 C   0  0  1  0  0  0  0  0  0  0  0  0
  -38.9717  -42.1003   22.2884 F   0  0  0  0  0  0  0  0  0  0  0  0
  -37.3756  -43.4894   22.8759 F   0  0  0  0  0  0  0  0  0  0  0  0
  -37.6597  -42.8582   20.7063 F   0  0  0  0  0  0  0  0  0  0  0  0
  -40.7156  -44.5034   18.9605 F   0  0  0  0  0  0  0  0  0  0  0  0
  -35.6903  -46.3811   17.4212 N   0  0  0  0  0  0  0  0  0  0  0  0
  -32.7899  -46.5282   17.0615 N   0  0  0  0  0  0  0  0  0  0  0  0
  -38.3099  -46.4859   21.7311 N   0  0  0  0  0  0  0  0  0  0  0  0
  -37.0100  -46.6778   23.7125 N   0  0  0  0  0  0  0  0  0  0  0  0
  -35.6326  -44.9260   15.6710 O   0  0  0  0  0  0  0  0  0  0  0  0
  -39.8426  -44.6659   22.9544 O   0  0  0  0  0  0  0  0  0  0  0  0
  -28.9686  -45.8023   16.3092 Cl  0  0  0  0  0  0  0  0  0  0  0  0
  -33.5180  -43.3034   14.8716 Cl  0  0  0  0  0  0  0  0  0  0  0  0
  -37.0694  -47.3053   24.5249 H   0  0  0  0  0  0  0  0  0  0  0  0
  1  7  1  6
 18  2  1  0
  2 19  1  1
  2 20  1  0
  2 21  1  0
  3  4  2  0
  7  3  1  6
  3 15  1  0
  4  5  1  0
  5 13  2  0
  5 23  1  0
  6  8  1  0
 23  6  1  0
  6 27  2  0
  7 18  1  0
 25  7  1  0
  8 12  1  0
  8 24  2  0
  9 10  2  0
 24  9  1  0
 11 10  1  0
 10 29  1  0
 12 11  2  0
 12 30  1  0
 14 13  1  0
 15 14  2  0
 15 22  1  0
 16 17  1  0
 16 25  1  0
 16 26  2  0
 17 28  1  6
 18 28  1  1
 26 31  1  0
M  END
$$$$
