
     RDKit          3D

 31 33  0  0  0  0  0  0  0  0999 V2000
  -40.1259  -46.9243   20.9747 C   0  0  0  0  0  0  0  0  0  0  0  0
  -38.9417  -43.4366   21.9634 C   0  0  1  0  0  0  0  0  0  0  0  0
  -38.9842  -45.4632   19.4762 C   0  0  0  0  0  0  0  0  0  0  0  0
  -37.7769  -45.1218   18.9067 C   0  0  0  0  0  0  0  0  0  0  0  0
  -37.5956  -44.8055   17.5854 C   0  0  0  0  0  0  0  0  0  0  0  0
  -35.4826  -45.2998   16.2876 C   0  0  0  0  0  0  0  0  0  0  0  0
  -39.1653  -45.7252   20.8611 C   0  0  1  0  0  0  0  0  0  0  0  0
  -34.0859  -45.4751   16.5968 C   0  0  0  0  0  0  0  0  0  0  0  0
  -32.4413  -46.7047   17.7931 C   0  0  0  0  0  0  0  0  0  0  0  0
  -31.3995  -46.0157   17.2211 C   0  0  0  0  0  0  0  0  0  0  0  0
  -31.7084  -45.0363   16.3197 C   0  0  0  0  0  0  0  0  0  0  0  0
  -33.0631  -44.7852   16.0258 C   0  0  0  0  0  0  0  0  0  0  0  0
  -38.7098  -44.8253   16.7468 C   0  0  0  0  0  0  0  0  0  0  0  0
  -39.9447  -45.1615   17.2796 C   0  0  0  0  0  0  0  0  0  0  0  0
  -40.0929  -45.4742   18.6059 C   0  0  0  0  0  0  0  0  0  0  0  0
  -38.2905  -46.2417   23.0891 C   0  0  0  0  0  0  0  0  0  0  0  0
  -39.4338  -45.5824   23.7112 C   0  0  0  0  0  0  0  0  0  0  0  0
  -39.8357  -44.5677   21.6184 C   0  0  1  0  0  0  0  0  0  0  0  0
  -38.7228  -42.6789   20.7830 F   0  0  0  0  0  0  0  0  0  0  0  0
  -39.4545  -42.5406   22.8981 F   0  0  0  0  0  0  0  0  0  0  0  0
  -37.6823  -43.7354   22.4182 F   0  0  0  0  0  0  0  0  0  0  0  0
  -41.3327  -45.7926   19.0515 F   0  0  0  0  0  0  0  0  0  0  0  0
  -36.3684  -44.4620   16.9663 N   0  0  0  0  0  0  0  0  0  0  0  0
  -33.7149  -46.4526   17.5010 N   0  0  0  0  0  0  0  0  0  0  0  0
  -38.0103  -46.0163   21.6869 N   0  0  0  0  0  0  0  0  0  0  0  0
  -37.5299  -47.0173   23.7947 N   0  0  0  0  0  0  0  0  0  0  0  0
  -35.8953  -45.9920   15.2928 O   0  0  0  0  0  0  0  0  0  0  0  0
  -40.3213  -45.0855   22.8363 O   0  0  0  0  0  0  0  0  0  0  0  0
  -29.7233  -46.3930   17.6451 Cl  0  0  0  0  0  0  0  0  0  0  0  0
  -33.3493  -43.4454   14.9034 Cl  0  0  0  0  0  0  0  0  0  0  0  0
  -36.5294  -47.0899   23.5282 H   0  0  0  0  0  0  0  0  0  0  0  0
  7  1  1  6
 18  2  1  0
  2 19  1  6
  2 20  1  0
  2 21  1  0
  3  4  2  0
  7  3  1  0
  3 15  1  0
  4  5  1  0
  5 13  2  0
  5 23  1  0
  6  8  1  0
 23  6  1  0
  6 27  2  0
  7 18  1  0
 25  7  1  0
  8 12  1  0
  8 24  2  0
  9 10  2  0
 24  9  1  0
 11 10  1  0
 10 29  1  0
 12 11  2  0
 12 30  1  0
 14 13  1  0
 15 14  2  0
 15 22  1  0
 16 17  1  0
 16 25  1  0
 16 26  2  0
 17 28  1  0
 18 28  1  1
 26 31  1  0
M  END
$$$$
