
     RDKit          3D

 31 33  0  0  0  0  0  0  0  0999 V2000
  -40.3566  -46.5738   21.2109 C   0  0  0  0  0  0  0  0  0  0  0  0
  -38.4648  -43.3041   21.7339 C   0  0  1  0  0  0  0  0  0  0  0  0
  -39.0626  -45.5302   19.5020 C   0  0  0  0  0  0  0  0  0  0  0  0
  -37.9037  -45.8274   18.8185 C   0  0  0  0  0  0  0  0  0  0  0  0
  -37.7388  -45.7010   17.4637 C   0  0  0  0  0  0  0  0  0  0  0  0
  -35.5262  -45.1503   16.3710 C   0  0  0  0  0  0  0  0  0  0  0  0
  -39.1951  -45.6059   20.9148 C   0  0  1  0  0  0  0  0  0  0  0  0
  -34.1191  -45.4390   16.4891 C   0  0  0  0  0  0  0  0  0  0  0  0
  -32.4371  -46.8585   17.3853 C   0  0  0  0  0  0  0  0  0  0  0  0
  -31.4244  -46.1990   16.7323 C   0  0  0  0  0  0  0  0  0  0  0  0
  -31.7670  -45.1376   15.9428 C   0  0  0  0  0  0  0  0  0  0  0  0
  -33.1250  -44.7773   15.8395 C   0  0  0  0  0  0  0  0  0  0  0  0
  -38.8174  -45.2354   16.7119 C   0  0  0  0  0  0  0  0  0  0  0  0
  -40.0020  -44.9225   17.3603 C   0  0  0  0  0  0  0  0  0  0  0  0
  -40.1355  -45.0611   18.7175 C   0  0  0  0  0  0  0  0  0  0  0  0
  -38.2846  -46.0498   23.1442 C   0  0  0  0  0  0  0  0  0  0  0  0
  -39.2361  -45.1172   23.7388 C   0  0  0  0  0  0  0  0  0  0  0  0
  -39.5794  -44.2666   21.5640 C   0  0  1  0  0  0  0  0  0  0  0  0
  -37.4763  -43.9213   22.5446 F   0  0  0  0  0  0  0  0  0  0  0  0
  -37.8147  -42.9376   20.5581 F   0  0  0  0  0  0  0  0  0  0  0  0
  -38.7376  -42.1184   22.3679 F   0  0  0  0  0  0  0  0  0  0  0  0
  -41.3255  -44.7346   19.2779 F   0  0  0  0  0  0  0  0  0  0  0  0
  -36.5668  -46.0081   16.7294 N   0  0  0  0  0  0  0  0  0  0  0  0
  -33.7145  -46.5027   17.2736 N   0  0  0  0  0  0  0  0  0  0  0  0
  -38.0630  -46.0312   21.7137 N   0  0  0  0  0  0  0  0  0  0  0  0
  -37.6393  -46.8823   23.8981 N   0  0  0  0  0  0  0  0  0  0  0  0
  -35.7906  -43.9918   15.8946 O   0  0  0  0  0  0  0  0  0  0  0  0
  -40.0704  -44.5491   22.8549 O   0  0  0  0  0  0  0  0  0  0  0  0
  -29.7416  -46.7155   16.9155 Cl  0  0  0  0  0  0  0  0  0  0  0  0
  -33.4453  -43.3426   14.8517 Cl  0  0  0  0  0  0  0  0  0  0  0  0
  -37.1111  -46.4981   24.7048 H   0  0  0  0  0  0  0  0  0  0  0  0
  7  1  1  6
 18  2  1  0
  2 19  1  1
  2 20  1  0
  2 21  1  0
  3  4  2  0
  7  3  1  0
  3 15  1  0
  4  5  1  0
  5 13  2  0
  5 23  1  0
  6  8  1  0
 23  6  1  0
  6 27  2  0
  7 18  1  0
 25  7  1  0
  8 12  1  0
  8 24  2  0
  9 10  2  0
 24  9  1  0
 11 10  1  0
 10 29  1  0
 12 11  2  0
 12 30  1  0
 14 13  1  0
 15 14  2  0
 15 22  1  0
 16 17  1  0
 16 25  1  0
 16 26  2  0
 17 28  1  0
 18 28  1  1
 26 31  1  0
M  END
$$$$
