
     RDKit          3D

 31 33  0  0  0  0  0  0  0  0999 V2000
  -39.9005  -47.0142   21.4124 C   0  0  0  0  0  0  0  0  0  0  0  0
  -38.7162  -43.4363   21.9953 C   0  0  1  0  0  0  0  0  0  0  0  0
  -38.8865  -45.6848   19.7128 C   0  0  0  0  0  0  0  0  0  0  0  0
  -37.7320  -45.8807   18.9866 C   0  0  0  0  0  0  0  0  0  0  0  0
  -37.6168  -45.6952   17.6334 C   0  0  0  0  0  0  0  0  0  0  0  0
  -35.3596  -45.0417   16.7001 C   0  0  0  0  0  0  0  0  0  0  0  0
  -38.9710  -45.8196   21.1249 C   0  0  1  0  0  0  0  0  0  0  0  0
  -33.9724  -45.4170   16.8099 C   0  0  0  0  0  0  0  0  0  0  0  0
  -32.3626  -46.8575   17.8004 C   0  0  0  0  0  0  0  0  0  0  0  0
  -31.3294  -46.3397   17.0579 C   0  0  0  0  0  0  0  0  0  0  0  0
  -31.6246  -45.3398   16.1746 C   0  0  0  0  0  0  0  0  0  0  0  0
  -32.9575  -44.8955   16.0710 C   0  0  0  0  0  0  0  0  0  0  0  0
  -38.7454  -45.2747   16.9300 C   0  0  0  0  0  0  0  0  0  0  0  0
  -39.9275  -45.0636   17.6226 C   0  0  0  0  0  0  0  0  0  0  0  0
  -40.0107  -45.2593   18.9768 C   0  0  0  0  0  0  0  0  0  0  0  0
  -37.9421  -46.1173   23.3269 C   0  0  0  0  0  0  0  0  0  0  0  0
  -39.0535  -45.4167   23.9615 C   0  0  0  0  0  0  0  0  0  0  0  0
  -39.6107  -44.6049   21.8164 C   0  0  1  0  0  0  0  0  0  0  0  0
  -37.6955  -43.8053   22.9103 F   0  0  0  0  0  0  0  0  0  0  0  0
  -38.0569  -43.0137   20.8436 F   0  0  0  0  0  0  0  0  0  0  0  0
  -39.2585  -42.2942   22.5280 F   0  0  0  0  0  0  0  0  0  0  0  0
  -41.2018  -45.0318   19.5821 F   0  0  0  0  0  0  0  0  0  0  0  0
  -36.4501  -45.8983   16.8557 N   0  0  0  0  0  0  0  0  0  0  0  0
  -33.6157  -46.4242   17.6868 N   0  0  0  0  0  0  0  0  0  0  0  0
  -37.7590  -46.0194   21.8942 N   0  0  0  0  0  0  0  0  0  0  0  0
  -37.1229  -46.8153   24.0477 N   0  0  0  0  0  0  0  0  0  0  0  0
  -35.5538  -43.8032   16.4407 O   0  0  0  0  0  0  0  0  0  0  0  0
  -40.0055  -45.0134   23.1065 O   0  0  0  0  0  0  0  0  0  0  0  0
  -29.6808  -46.9545   17.2482 Cl  0  0  0  0  0  0  0  0  0  0  0  0
  -33.2115  -43.5461   14.9523 Cl  0  0  0  0  0  0  0  0  0  0  0  0
  -37.2444  -47.8460   24.0607 H   0  0  0  0  0  0  0  0  0  0  0  0
  7  1  1  6
 18  2  1  0
  2 19  1  1
  2 20  1  0
  2 21  1  0
  3  4  2  0
  7  3  1  0
  3 15  1  0
  4  5  1  0
  5 13  2  0
  5 23  1  0
  6  8  1  0
 23  6  1  0
  6 27  2  0
  7 18  1  0
 25  7  1  0
  8 12  1  0
  8 24  2  0
  9 10  2  0
 24  9  1  0
 11 10  1  0
 10 29  1  0
 12 11  2  0
 12 30  1  0
 14 13  1  0
 15 14  2  0
 15 22  1  0
 16 17  1  0
 16 25  1  0
 16 26  2  0
 17 28  1  0
 18 28  1  1
 26 31  1  0
M  END
$$$$
