
     RDKit          3D

 31 33  0  0  0  0  0  0  0  0999 V2000
  -40.5748  -46.2106   21.0434 C   0  0  0  0  0  0  0  0  0  0  0  0
  -38.3797  -43.1563   21.6416 C   0  0  1  0  0  0  0  0  0  0  0  0
  -39.0163  -45.3965   19.4207 C   0  0  0  0  0  0  0  0  0  0  0  0
  -37.8609  -45.8610   18.7936 C   0  0  0  0  0  0  0  0  0  0  0  0
  -37.6702  -45.8630   17.4350 C   0  0  0  0  0  0  0  0  0  0  0  0
  -35.4649  -45.4371   16.4083 C   0  0  0  0  0  0  0  0  0  0  0  0
  -39.1913  -45.4599   20.8704 C   0  0  1  0  0  0  0  0  0  0  0  0
  -34.0459  -45.5393   16.5393 C   0  0  0  0  0  0  0  0  0  0  0  0
  -32.2693  -46.8102   17.4944 C   0  0  0  0  0  0  0  0  0  0  0  0
  -31.3197  -46.0033   16.8968 C   0  0  0  0  0  0  0  0  0  0  0  0
  -31.7543  -44.9638   16.1206 C   0  0  0  0  0  0  0  0  0  0  0  0
  -33.1282  -44.7308   15.9417 C   0  0  0  0  0  0  0  0  0  0  0  0
  -38.6820  -45.3761   16.6371 C   0  0  0  0  0  0  0  0  0  0  0  0
  -39.8412  -44.9063   17.2145 C   0  0  0  0  0  0  0  0  0  0  0  0
  -40.0129  -44.9129   18.5929 C   0  0  0  0  0  0  0  0  0  0  0  0
  -37.7998  -46.0199   22.8028 C   0  0  0  0  0  0  0  0  0  0  0  0
  -38.6123  -45.0870   23.6324 C   0  0  0  0  0  0  0  0  0  0  0  0
  -39.3973  -44.2186   21.6220 C   0  0  1  0  0  0  0  0  0  0  0  0
  -38.1089  -42.9148   23.0190 F   0  0  0  0  0  0  0  0  0  0  0  0
  -37.1674  -43.4333   21.1040 F   0  0  0  0  0  0  0  0  0  0  0  0
  -38.8503  -41.9035   21.2227 F   0  0  0  0  0  0  0  0  0  0  0  0
  -41.1359  -44.4143   19.1559 F   0  0  0  0  0  0  0  0  0  0  0  0
  -36.4409  -46.3620   16.8512 N   0  0  0  0  0  0  0  0  0  0  0  0
  -33.5715  -46.5669   17.3075 N   0  0  0  0  0  0  0  0  0  0  0  0
  -38.2952  -46.3625   21.5308 N   0  0  0  0  0  0  0  0  0  0  0  0
  -36.6958  -46.4630   23.2869 N   0  0  0  0  0  0  0  0  0  0  0  0
  -35.9607  -44.3877   15.8238 O   0  0  0  0  0  0  0  0  0  0  0  0
  -39.6955  -44.5822   22.9548 O   0  0  0  0  0  0  0  0  0  0  0  0
  -29.6202  -46.3302   17.1467 Cl  0  0  0  0  0  0  0  0  0  0  0  0
  -33.5534  -43.3639   14.9696 Cl  0  0  0  0  0  0  0  0  0  0  0  0
  -36.5984  -47.0468   24.1278 H   0  0  0  0  0  0  0  0  0  0  0  0
  1  7  1  6
 18  2  1  0
  2 19  1  1
  2 20  1  0
  2 21  1  0
  3  4  2  0
  7  3  1  6
  3 15  1  0
  4  5  1  0
  5 13  2  0
  5 23  1  0
  6  8  1  0
 23  6  1  0
  6 27  2  0
  7 18  1  0
 25  7  1  0
  8 12  1  0
  8 24  2  0
  9 10  2  0
 24  9  1  0
 11 10  1  0
 10 29  1  0
 12 11  2  0
 12 30  1  0
 14 13  1  0
 15 14  2  0
 15 22  1  0
 16 17  1  0
 16 25  1  0
 16 26  2  0
 17 28  1  6
 18 28  1  1
 26 31  1  0
M  END
$$$$
