
     RDKit          3D

 31 33  0  0  0  0  0  0  0  0999 V2000
  -38.1953  -47.5711   21.1042 C   0  0  0  0  0  0  0  0  0  0  0  0
  -41.2291  -45.4267   21.9427 C   0  0  1  0  0  0  0  0  0  0  0  0
  -38.7505  -45.5818   19.8962 C   0  0  0  0  0  0  0  0  0  0  0  0
  -37.7776  -46.0164   18.9969 C   0  0  0  0  0  0  0  0  0  0  0  0
  -37.6514  -45.5481   17.7136 C   0  0  0  0  0  0  0  0  0  0  0  0
  -35.6637  -45.1381   16.3065 C   0  0  0  0  0  0  0  0  0  0  0  0
  -38.8741  -46.1468   21.2384 C   0  0  1  0  0  0  0  0  0  0  0  0
  -34.2399  -45.2509   16.3412 C   0  0  0  0  0  0  0  0  0  0  0  0
  -32.3496  -46.3086   15.3452 C   0  0  0  0  0  0  0  0  0  0  0  0
  -31.4800  -45.6032   16.1554 C   0  0  0  0  0  0  0  0  0  0  0  0
  -32.0115  -44.7223   17.0572 C   0  0  0  0  0  0  0  0  0  0  0  0
  -33.4022  -44.5461   17.1502 C   0  0  0  0  0  0  0  0  0  0  0  0
  -38.5402  -44.5880   17.2830 C   0  0  0  0  0  0  0  0  0  0  0  0
  -39.5175  -44.1289   18.1386 C   0  0  0  0  0  0  0  0  0  0  0  0
  -39.6267  -44.6166   19.4347 C   0  0  0  0  0  0  0  0  0  0  0  0
  -38.5159  -45.3703   23.5304 C   0  0  0  0  0  0  0  0  0  0  0  0
  -39.5705  -46.3148   23.9934 C   0  0  0  0  0  0  0  0  0  0  0  0
  -40.2056  -46.4676   21.7607 C   0  0  1  0  0  0  0  0  0  0  0  0
  -40.9493  -44.8360   23.2083 F   0  0  0  0  0  0  0  0  0  0  0  0
  -41.2301  -44.3840   21.0777 F   0  0  0  0  0  0  0  0  0  0  0  0
  -42.5243  -45.9249   22.1440 F   0  0  0  0  0  0  0  0  0  0  0  0
  -40.5623  -44.1342   20.2824 F   0  0  0  0  0  0  0  0  0  0  0  0
  -36.6140  -46.0463   16.8323 N   0  0  0  0  0  0  0  0  0  0  0  0
  -33.6699  -46.1218   15.4536 N   0  0  0  0  0  0  0  0  0  0  0  0
  -38.0331  -45.5237   22.2173 N   0  0  0  0  0  0  0  0  0  0  0  0
  -38.1018  -44.4699   24.3473 N   0  0  0  0  0  0  0  0  0  0  0  0
  -36.1905  -44.0947   15.7386 O   0  0  0  0  0  0  0  0  0  0  0  0
  -40.0209  -47.1387   22.9907 O   0  0  0  0  0  0  0  0  0  0  0  0
  -29.7560  -45.8541   16.0054 Cl  0  0  0  0  0  0  0  0  0  0  0  0
  -33.9548  -43.4329   18.3542 Cl  0  0  0  0  0  0  0  0  0  0  0  0
  -37.6607  -44.6421   25.2601 H   0  0  0  0  0  0  0  0  0  0  0  0
  1  7  1  6
 18  2  1  0
  2 19  1  1
  2 20  1  0
  2 21  1  0
  3  4  2  0
  7  3  1  6
  3 15  1  0
  4  5  1  0
  5 13  2  0
  5 23  1  0
  6  8  1  0
 23  6  1  0
  6 27  2  0
  7 18  1  0
 25  7  1  0
  8 12  1  0
  8 24  2  0
  9 10  2  0
 24  9  1  0
 11 10  1  0
 10 29  1  0
 12 11  2  0
 12 30  1  0
 14 13  1  0
 15 14  2  0
 15 22  1  0
 16 17  1  0
 16 25  1  0
 16 26  2  0
 17 28  1  6
 18 28  1  1
 26 31  1  0
M  END
$$$$
