
     RDKit          3D

 31 33  0  0  0  0  0  0  0  0999 V2000
  -40.4587  -46.4044   20.8459 C   0  0  0  0  0  0  0  0  0  0  0  0
  -39.0265  -43.0688   21.9983 C   0  0  1  0  0  0  0  0  0  0  0  0
  -38.9488  -45.1122   19.5135 C   0  0  0  0  0  0  0  0  0  0  0  0
  -37.6795  -44.7162   19.0938 C   0  0  0  0  0  0  0  0  0  0  0  0
  -37.3353  -44.4970   17.7840 C   0  0  0  0  0  0  0  0  0  0  0  0
  -35.2307  -44.9124   16.5606 C   0  0  0  0  0  0  0  0  0  0  0  0
  -39.2534  -45.3798   20.9176 C   0  0  1  0  0  0  0  0  0  0  0  0
  -33.8428  -45.2339   16.6682 C   0  0  0  0  0  0  0  0  0  0  0  0
  -32.2552  -46.6597   17.7316 C   0  0  0  0  0  0  0  0  0  0  0  0
  -31.2150  -46.1006   17.0137 C   0  0  0  0  0  0  0  0  0  0  0  0
  -31.5094  -45.1040   16.1237 C   0  0  0  0  0  0  0  0  0  0  0  0
  -32.8337  -44.6679   15.9510 C   0  0  0  0  0  0  0  0  0  0  0  0
  -38.3022  -44.6788   16.8200 C   0  0  0  0  0  0  0  0  0  0  0  0
  -39.5707  -45.0691   17.1897 C   0  0  0  0  0  0  0  0  0  0  0  0
  -39.8977  -45.2848   18.5224 C   0  0  0  0  0  0  0  0  0  0  0  0
  -37.9798  -45.8780   22.9459 C   0  0  0  0  0  0  0  0  0  0  0  0
  -39.0503  -45.2288   23.7529 C   0  0  0  0  0  0  0  0  0  0  0  0
  -39.7910  -44.3014   21.7522 C   0  0  1  0  0  0  0  0  0  0  0  0
  -38.1933  -43.3555   23.1174 F   0  0  0  0  0  0  0  0  0  0  0  0
  -38.1670  -42.6561   21.0360 F   0  0  0  0  0  0  0  0  0  0  0  0
  -39.7973  -42.0037   22.4860 F   0  0  0  0  0  0  0  0  0  0  0  0
  -41.1540  -45.6292   18.8829 F   0  0  0  0  0  0  0  0  0  0  0  0
  -35.9938  -44.0859   17.4200 N   0  0  0  0  0  0  0  0  0  0  0  0
  -33.5076  -46.2264   17.5479 N   0  0  0  0  0  0  0  0  0  0  0  0
  -38.2599  -46.1590   21.5955 N   0  0  0  0  0  0  0  0  0  0  0  0
  -36.8625  -46.1481   23.5190 N   0  0  0  0  0  0  0  0  0  0  0  0
  -35.9093  -45.4128   15.5717 O   0  0  0  0  0  0  0  0  0  0  0  0
  -40.1404  -44.8717   22.9972 O   0  0  0  0  0  0  0  0  0  0  0  0
  -29.5818  -46.6744   17.2607 Cl  0  0  0  0  0  0  0  0  0  0  0  0
  -33.0744  -43.3760   14.8252 Cl  0  0  0  0  0  0  0  0  0  0  0  0
  -36.7080  -46.8843   24.2200 H   0  0  0  0  0  0  0  0  0  0  0  0
  1  7  1  6
 18  2  1  0
  2 19  1  1
  2 20  1  0
  2 21  1  0
  3  4  2  0
  7  3  1  6
  3 15  1  0
  4  5  1  0
  5 13  2  0
  5 23  1  0
  6  8  1  0
 23  6  1  0
  6 27  2  0
  7 18  1  0
 25  7  1  0
  8 12  1  0
  8 24  2  0
  9 10  2  0
 24  9  1  0
 11 10  1  0
 10 29  1  0
 12 11  2  0
 12 30  1  0
 14 13  1  0
 15 14  2  0
 15 22  1  0
 16 17  1  0
 16 25  1  0
 16 26  2  0
 17 28  1  6
 18 28  1  1
 26 31  1  0
M  END
$$$$
