
     RDKit          3D

 31 33  0  0  0  0  0  0  0  0999 V2000
  -40.0069  -47.1778   21.1125 C   0  0  0  0  0  0  0  0  0  0  0  0
  -39.1575  -43.5633   21.9833 C   0  0  1  0  0  0  0  0  0  0  0  0
  -39.2772  -45.5855   19.4951 C   0  0  0  0  0  0  0  0  0  0  0  0
  -38.1758  -45.2438   18.7410 C   0  0  0  0  0  0  0  0  0  0  0  0
  -38.2090  -44.9112   17.4117 C   0  0  0  0  0  0  0  0  0  0  0  0
  -35.8213  -45.1345   16.6104 C   0  0  0  0  0  0  0  0  0  0  0  0
  -39.2329  -45.8648   20.8877 C   0  0  1  0  0  0  0  0  0  0  0  0
  -34.5782  -44.4122   16.5095 C   0  0  0  0  0  0  0  0  0  0  0  0
  -33.4232  -42.3626   16.8449 C   0  0  0  0  0  0  0  0  0  0  0  0
  -32.2123  -42.8957   16.4751 C   0  0  0  0  0  0  0  0  0  0  0  0
  -32.1853  -44.2135   16.1145 C   0  0  0  0  0  0  0  0  0  0  0  0
  -33.3858  -44.9502   16.1397 C   0  0  0  0  0  0  0  0  0  0  0  0
  -39.4449  -44.9132   16.7653 C   0  0  0  0  0  0  0  0  0  0  0  0
  -40.5794  -45.2491   17.4876 C   0  0  0  0  0  0  0  0  0  0  0  0
  -40.5127  -45.5784   18.8166 C   0  0  0  0  0  0  0  0  0  0  0  0
  -38.0040  -46.2574   22.9690 C   0  0  0  0  0  0  0  0  0  0  0  0
  -39.1272  -45.7498   23.7497 C   0  0  0  0  0  0  0  0  0  0  0  0
  -39.9373  -44.8016   21.7457 C   0  0  1  0  0  0  0  0  0  0  0  0
  -38.0231  -43.9063   22.7648 F   0  0  0  0  0  0  0  0  0  0  0  0
  -38.6562  -42.9506   20.8375 F   0  0  0  0  0  0  0  0  0  0  0  0
  -39.7647  -42.5524   22.6844 F   0  0  0  0  0  0  0  0  0  0  0  0
  -41.6661  -45.8952   19.4539 F   0  0  0  0  0  0  0  0  0  0  0  0
  -37.0961  -44.5668   16.6055 N   0  0  0  0  0  0  0  0  0  0  0  0
  -34.5462  -43.0762   16.8629 N   0  0  0  0  0  0  0  0  0  0  0  0
  -37.9485  -46.0016   21.5452 N   0  0  0  0  0  0  0  0  0  0  0  0
  -37.0611  -46.9260   23.5535 N   0  0  0  0  0  0  0  0  0  0  0  0
  -35.6893  -46.4043   16.7063 O   0  0  0  0  0  0  0  0  0  0  0  0
  -40.1819  -45.3744   23.0103 O   0  0  0  0  0  0  0  0  0  0  0  0
  -30.7486  -41.9010   16.4704 Cl  0  0  0  0  0  0  0  0  0  0  0  0
  -33.2476  -46.6252   15.5811 Cl  0  0  0  0  0  0  0  0  0  0  0  0
  -37.1939  -47.9482   23.6750 H   0  0  0  0  0  0  0  0  0  0  0  0
  7  1  1  6
 18  2  1  0
  2 19  1  1
  2 20  1  0
  2 21  1  0
  3  4  2  0
  7  3  1  0
  3 15  1  0
  4  5  1  0
  5 13  2  0
  5 23  1  0
  6  8  1  0
 23  6  1  0
  6 27  2  0
  7 18  1  0
 25  7  1  0
  8 12  1  0
  8 24  2  0
  9 10  2  0
 24  9  1  0
 11 10  1  0
 10 29  1  0
 12 11  2  0
 12 30  1  0
 14 13  1  0
 15 14  2  0
 15 22  1  0
 16 17  1  0
 16 25  1  0
 16 26  2  0
 17 28  1  0
 18 28  1  1
 26 31  1  0
M  END
$$$$
