
     RDKit          3D

 31 33  0  0  0  0  0  0  0  0999 V2000
  -39.8505  -47.1088   21.0305 C   0  0  0  0  0  0  0  0  0  0  0  0
  -39.2145  -43.5104   22.1217 C   0  0  1  0  0  0  0  0  0  0  0  0
  -39.0646  -45.4172   19.5456 C   0  0  0  0  0  0  0  0  0  0  0  0
  -37.9077  -45.0876   18.8738 C   0  0  0  0  0  0  0  0  0  0  0  0
  -37.8483  -44.6954   17.5618 C   0  0  0  0  0  0  0  0  0  0  0  0
  -35.8807  -45.1981   16.0554 C   0  0  0  0  0  0  0  0  0  0  0  0
  -39.1147  -45.7594   20.9240 C   0  0  1  0  0  0  0  0  0  0  0  0
  -34.4650  -45.4108   16.2220 C   0  0  0  0  0  0  0  0  0  0  0  0
  -32.6730  -45.8654   17.7151 C   0  0  0  0  0  0  0  0  0  0  0  0
  -31.7488  -45.9492   16.7022 C   0  0  0  0  0  0  0  0  0  0  0  0
  -32.1926  -45.7587   15.4240 C   0  0  0  0  0  0  0  0  0  0  0  0
  -33.5590  -45.4893   15.2115 C   0  0  0  0  0  0  0  0  0  0  0  0
  -39.0422  -44.6185   16.8450 C   0  0  0  0  0  0  0  0  0  0  0  0
  -40.2300  -44.9396   17.4835 C   0  0  0  0  0  0  0  0  0  0  0  0
  -40.2559  -45.3298   18.7973 C   0  0  0  0  0  0  0  0  0  0  0  0
  -38.0322  -46.2037   23.0750 C   0  0  0  0  0  0  0  0  0  0  0  0
  -39.2307  -45.7744   23.7878 C   0  0  0  0  0  0  0  0  0  0  0  0
  -39.9239  -44.7639   21.7706 C   0  0  1  0  0  0  0  0  0  0  0  0
  -38.8049  -42.8887   20.9130 F   0  0  0  0  0  0  0  0  0  0  0  0
  -39.9837  -42.5629   22.7926 F   0  0  0  0  0  0  0  0  0  0  0  0
  -38.0636  -43.6151   22.8612 F   0  0  0  0  0  0  0  0  0  0  0  0
  -41.4567  -45.6274   19.3508 F   0  0  0  0  0  0  0  0  0  0  0  0
  -36.6766  -44.3613   16.8388 N   0  0  0  0  0  0  0  0  0  0  0  0
  -33.9601  -45.6107   17.4931 N   0  0  0  0  0  0  0  0  0  0  0  0
  -37.8794  -45.8799   21.6723 N   0  0  0  0  0  0  0  0  0  0  0  0
  -37.1103  -46.8641   23.7010 N   0  0  0  0  0  0  0  0  0  0  0  0
  -36.4041  -45.8535   15.0882 O   0  0  0  0  0  0  0  0  0  0  0  0
  -40.2405  -45.4036   22.9862 O   0  0  0  0  0  0  0  0  0  0  0  0
  -30.0485  -46.2918   17.0540 Cl  0  0  0  0  0  0  0  0  0  0  0  0
  -34.0082  -45.1848   13.5257 Cl  0  0  0  0  0  0  0  0  0  0  0  0
  -36.9451  -47.8502   23.4224 H   0  0  0  0  0  0  0  0  0  0  0  0
  7  1  1  6
 18  2  1  0
  2 19  1  6
  2 20  1  0
  2 21  1  0
  3  4  2  0
  7  3  1  0
  3 15  1  0
  4  5  1  0
  5 13  2  0
  5 23  1  0
  6  8  1  0
 23  6  1  0
  6 27  2  0
  7 18  1  0
 25  7  1  0
  8 12  1  0
  8 24  2  0
  9 10  2  0
 24  9  1  0
 11 10  1  0
 10 29  1  0
 12 11  2  0
 12 30  1  0
 14 13  1  0
 15 14  2  0
 15 22  1  0
 16 17  1  0
 16 25  1  0
 16 26  2  0
 17 28  1  0
 18 28  1  1
 26 31  1  0
M  END
$$$$
