
     RDKit          3D

 31 33  0  0  0  0  0  0  0  0999 V2000
  -39.7396  -47.2652   21.1062 C   0  0  0  0  0  0  0  0  0  0  0  0
  -39.1900  -43.6472   22.1793 C   0  0  1  0  0  0  0  0  0  0  0  0
  -38.8194  -45.6045   19.6641 C   0  0  0  0  0  0  0  0  0  0  0  0
  -37.6091  -45.2741   19.0945 C   0  0  0  0  0  0  0  0  0  0  0  0
  -37.4333  -44.9077   17.7855 C   0  0  0  0  0  0  0  0  0  0  0  0
  -35.4175  -45.3674   16.3301 C   0  0  0  0  0  0  0  0  0  0  0  0
  -38.9925  -45.9195   21.0390 C   0  0  1  0  0  0  0  0  0  0  0  0
  -34.0118  -45.6352   16.5018 C   0  0  0  0  0  0  0  0  0  0  0  0
  -32.3343  -46.8383   17.6791 C   0  0  0  0  0  0  0  0  0  0  0  0
  -31.3211  -46.3465   16.8925 C   0  0  0  0  0  0  0  0  0  0  0  0
  -31.6612  -45.4809   15.8914 C   0  0  0  0  0  0  0  0  0  0  0  0
  -33.0172  -45.1404   15.7182 C   0  0  0  0  0  0  0  0  0  0  0  0
  -38.5570  -44.8603   16.9606 C   0  0  0  0  0  0  0  0  0  0  0  0
  -39.7950  -45.1832   17.4940 C   0  0  0  0  0  0  0  0  0  0  0  0
  -39.9375  -45.5472   18.8079 C   0  0  0  0  0  0  0  0  0  0  0  0
  -38.1063  -46.3233   23.2857 C   0  0  0  0  0  0  0  0  0  0  0  0
  -39.3616  -45.8779   23.8811 C   0  0  0  0  0  0  0  0  0  0  0  0
  -39.8700  -44.9060   21.7911 C   0  0  1  0  0  0  0  0  0  0  0  0
  -40.1614  -42.7876   22.7562 F   0  0  0  0  0  0  0  0  0  0  0  0
  -38.1903  -43.7860   23.1389 F   0  0  0  0  0  0  0  0  0  0  0  0
  -38.6176  -42.8983   21.1824 F   0  0  0  0  0  0  0  0  0  0  0  0
  -41.1810  -45.8485   19.2550 F   0  0  0  0  0  0  0  0  0  0  0  0
  -36.2037  -44.5736   17.1662 N   0  0  0  0  0  0  0  0  0  0  0  0
  -33.6097  -46.5047   17.4983 N   0  0  0  0  0  0  0  0  0  0  0  0
  -37.8287  -46.0274   21.8960 N   0  0  0  0  0  0  0  0  0  0  0  0
  -37.2458  -46.9729   24.0036 N   0  0  0  0  0  0  0  0  0  0  0  0
  -35.9412  -45.9260   15.3041 O   0  0  0  0  0  0  0  0  0  0  0  0
  -40.2953  -45.5212   22.9860 O   0  0  0  0  0  0  0  0  0  0  0  0
  -29.6410  -46.8248   17.1764 Cl  0  0  0  0  0  0  0  0  0  0  0  0
  -33.3335  -43.9541   14.4417 Cl  0  0  0  0  0  0  0  0  0  0  0  0
  -37.2889  -48.0098   23.9934 H   0  0  0  0  0  0  0  0  0  0  0  0
  7  1  1  6
 18  2  1  0
  2 19  1  1
  2 20  1  0
  2 21  1  0
  3  4  2  0
  7  3  1  0
  3 15  1  0
  4  5  1  0
  5 13  2  0
  5 23  1  0
  6  8  1  0
 23  6  1  0
  6 27  2  0
  7 18  1  0
 25  7  1  0
  8 12  1  0
  8 24  2  0
  9 10  2  0
 24  9  1  0
 11 10  1  0
 10 29  1  0
 12 11  2  0
 12 30  1  0
 14 13  1  0
 15 14  2  0
 15 22  1  0
 16 17  1  0
 16 25  1  0
 16 26  2  0
 17 28  1  0
 18 28  1  1
 26 31  1  0
M  END
$$$$
