
     RDKit          3D

 31 33  0  0  0  0  0  0  0  0999 V2000
  -38.7982  -43.6418   21.1171 C   0  0  0  0  0  0  0  0  0  0  0  0
  -38.1496  -47.3598   21.6644 C   0  0  1  0  0  0  0  0  0  0  0  0
  -38.9351  -45.2586   19.3704 C   0  0  0  0  0  0  0  0  0  0  0  0
  -37.7663  -45.5085   18.6849 C   0  0  0  0  0  0  0  0  0  0  0  0
  -37.6571  -45.5745   17.3202 C   0  0  0  0  0  0  0  0  0  0  0  0
  -35.3985  -44.9853   16.3485 C   0  0  0  0  0  0  0  0  0  0  0  0
  -39.0173  -45.1297   20.7832 C   0  0  1  0  0  0  0  0  0  0  0  0
  -34.0061  -45.3210   16.5094 C   0  0  0  0  0  0  0  0  0  0  0  0
  -32.3975  -46.7550   17.5111 C   0  0  0  0  0  0  0  0  0  0  0  0
  -31.3481  -46.1698   16.8452 C   0  0  0  0  0  0  0  0  0  0  0  0
  -31.6346  -45.1388   15.9954 C   0  0  0  0  0  0  0  0  0  0  0  0
  -32.9753  -44.7328   15.8465 C   0  0  0  0  0  0  0  0  0  0  0  0
  -38.8084  -45.3726   16.5592 C   0  0  0  0  0  0  0  0  0  0  0  0
  -40.0058  -45.1160   17.2089 C   0  0  0  0  0  0  0  0  0  0  0  0
  -40.0821  -45.0576   18.5763 C   0  0  0  0  0  0  0  0  0  0  0  0
  -40.2025  -45.4103   22.9075 C   0  0  0  0  0  0  0  0  0  0  0  0
  -38.9348  -45.5034   23.6238 C   0  0  0  0  0  0  0  0  0  0  0  0
  -37.9183  -45.9015   21.5311 C   0  0  1  0  0  0  0  0  0  0  0  0
  -37.8208  -47.9679   20.4245 F   0  0  0  0  0  0  0  0  0  0  0  0
  -37.3629  -47.9990   22.6195 F   0  0  0  0  0  0  0  0  0  0  0  0
  -39.4290  -47.7811   21.9249 F   0  0  0  0  0  0  0  0  0  0  0  0
  -41.2891  -44.8020   19.1373 F   0  0  0  0  0  0  0  0  0  0  0  0
  -36.4754  -45.8404   16.5854 N   0  0  0  0  0  0  0  0  0  0  0  0
  -33.6577  -46.3570   17.3557 N   0  0  0  0  0  0  0  0  0  0  0  0
  -40.2228  -45.5537   21.4671 N   0  0  0  0  0  0  0  0  0  0  0  0
  -41.3012  -45.2077   23.5630 N   0  0  0  0  0  0  0  0  0  0  0  0
  -35.6116  -43.7852   15.9567 O   0  0  0  0  0  0  0  0  0  0  0  0
  -37.8532  -45.3810   22.8395 O   0  0  0  0  0  0  0  0  0  0  0  0
  -29.6905  -46.7401   17.0884 Cl  0  0  0  0  0  0  0  0  0  0  0  0
  -33.2213  -43.3405   14.7798 Cl  0  0  0  0  0  0  0  0  0  0  0  0
  -41.5721  -45.9036   24.2838 H   0  0  0  0  0  0  0  0  0  0  0  0
  7  1  1  6
 18  2  1  0
  2 19  1  6
  2 20  1  0
  2 21  1  0
  3  4  2  0
  7  3  1  0
  3 15  1  0
  4  5  1  0
  5 13  2  0
  5 23  1  0
  6  8  1  0
 23  6  1  0
  6 27  2  0
  7 18  1  0
 25  7  1  0
  8 12  1  0
  8 24  2  0
  9 10  2  0
 24  9  1  0
 11 10  1  0
 10 29  1  0
 12 11  2  0
 12 30  1  0
 14 13  1  0
 15 14  2  0
 15 22  1  0
 16 17  1  0
 16 25  1  0
 16 26  2  0
 17 28  1  0
 18 28  1  1
 26 31  1  0
M  END
$$$$
