
     RDKit          3D

 31 33  0  0  0  0  0  0  0  0999 V2000
  -40.2041  -46.8821   21.5912 C   0  0  0  0  0  0  0  0  0  0  0  0
  -38.2971  -43.6452   22.2465 C   0  0  1  0  0  0  0  0  0  0  0  0
  -38.7851  -45.8563   19.9732 C   0  0  0  0  0  0  0  0  0  0  0  0
  -37.5940  -46.1854   19.3638 C   0  0  0  0  0  0  0  0  0  0  0  0
  -37.3389  -46.0592   18.0230 C   0  0  0  0  0  0  0  0  0  0  0  0
  -35.1780  -45.5383   16.8179 C   0  0  0  0  0  0  0  0  0  0  0  0
  -39.0103  -45.9328   21.3743 C   0  0  1  0  0  0  0  0  0  0  0  0
  -33.7492  -45.6744   16.9487 C   0  0  0  0  0  0  0  0  0  0  0  0
  -31.9229  -47.0423   17.6127 C   0  0  0  0  0  0  0  0  0  0  0  0
  -30.9864  -46.1391   17.1718 C   0  0  0  0  0  0  0  0  0  0  0  0
  -31.4417  -44.9801   16.6091 C   0  0  0  0  0  0  0  0  0  0  0  0
  -32.8316  -44.7721   16.5106 C   0  0  0  0  0  0  0  0  0  0  0  0
  -38.3527  -45.5592   17.2062 C   0  0  0  0  0  0  0  0  0  0  0  0
  -39.5668  -45.2135   17.7791 C   0  0  0  0  0  0  0  0  0  0  0  0
  -39.7912  -45.3528   19.1241 C   0  0  0  0  0  0  0  0  0  0  0  0
  -38.2537  -46.3967   23.6565 C   0  0  0  0  0  0  0  0  0  0  0  0
  -39.2264  -45.4498   24.1912 C   0  0  0  0  0  0  0  0  0  0  0  0
  -39.4140  -44.5889   22.0015 C   0  0  1  0  0  0  0  0  0  0  0  0
  -37.8906  -43.1169   20.9932 F   0  0  0  0  0  0  0  0  0  0  0  0
  -38.6158  -42.5431   23.0360 F   0  0  0  0  0  0  0  0  0  0  0  0
  -37.1457  -44.1494   22.7965 F   0  0  0  0  0  0  0  0  0  0  0  0
  -41.0047  -44.9930   19.6089 F   0  0  0  0  0  0  0  0  0  0  0  0
  -36.1317  -46.3985   17.3637 N   0  0  0  0  0  0  0  0  0  0  0  0
  -33.2320  -46.8271   17.5095 N   0  0  0  0  0  0  0  0  0  0  0  0
  -37.9395  -46.3785   22.2434 N   0  0  0  0  0  0  0  0  0  0  0  0
  -37.6724  -47.2414   24.4479 N   0  0  0  0  0  0  0  0  0  0  0  0
  -35.5526  -44.5215   16.1362 O   0  0  0  0  0  0  0  0  0  0  0  0
  -39.9921  -44.8660   23.2570 O   0  0  0  0  0  0  0  0  0  0  0  0
  -29.2567  -46.4768   17.3328 Cl  0  0  0  0  0  0  0  0  0  0  0  0
  -33.3076  -43.2055   15.8353 Cl  0  0  0  0  0  0  0  0  0  0  0  0
  -37.3048  -46.8867   25.3514 H   0  0  0  0  0  0  0  0  0  0  0  0
  7  1  1  6
 18  2  1  0
  2 19  1  6
  2 20  1  0
  2 21  1  0
  3  4  2  0
  7  3  1  0
  3 15  1  0
  4  5  1  0
  5 13  2  0
  5 23  1  0
  6  8  1  0
 23  6  1  0
  6 27  2  0
  7 18  1  0
 25  7  1  0
  8 12  1  0
  8 24  2  0
  9 10  2  0
 24  9  1  0
 11 10  1  0
 10 29  1  0
 12 11  2  0
 12 30  1  0
 14 13  1  0
 15 14  2  0
 15 22  1  0
 16 17  1  0
 16 25  1  0
 16 26  2  0
 17 28  1  0
 18 28  1  1
 26 31  1  0
M  END
$$$$
