
     RDKit          3D

 31 33  0  0  0  0  0  0  0  0999 V2000
  -40.0591  -46.6306   21.2055 C   0  0  0  0  0  0  0  0  0  0  0  0
  -38.5565  -43.2051   21.9482 C   0  0  1  0  0  0  0  0  0  0  0  0
  -38.8731  -45.3490   19.5823 C   0  0  0  0  0  0  0  0  0  0  0  0
  -37.6619  -45.2852   18.9285 C   0  0  0  0  0  0  0  0  0  0  0  0
  -37.5075  -45.0570   17.5858 C   0  0  0  0  0  0  0  0  0  0  0  0
  -35.3606  -46.0242   16.6647 C   0  0  0  0  0  0  0  0  0  0  0  0
  -39.0118  -45.5222   20.9859 C   0  0  1  0  0  0  0  0  0  0  0  0
  -33.9271  -45.8777   16.6320 C   0  0  0  0  0  0  0  0  0  0  0  0
  -32.0710  -44.4640   16.1805 C   0  0  0  0  0  0  0  0  0  0  0  0
  -31.1585  -45.3954   16.6129 C   0  0  0  0  0  0  0  0  0  0  0  0
  -31.6411  -46.5920   17.0627 C   0  0  0  0  0  0  0  0  0  0  0  0
  -33.0332  -46.8080   17.0605 C   0  0  0  0  0  0  0  0  0  0  0  0
  -38.6552  -44.8719   16.8152 C   0  0  0  0  0  0  0  0  0  0  0  0
  -39.8946  -44.9262   17.4337 C   0  0  0  0  0  0  0  0  0  0  0  0
  -40.0156  -45.1576   18.7794 C   0  0  0  0  0  0  0  0  0  0  0  0
  -38.0815  -45.9913   23.2019 C   0  0  0  0  0  0  0  0  0  0  0  0
  -39.1393  -45.2084   23.8321 C   0  0  0  0  0  0  0  0  0  0  0  0
  -39.5528  -44.2753   21.7038 C   0  0  1  0  0  0  0  0  0  0  0  0
  -37.8119  -43.5590   23.1039 F   0  0  0  0  0  0  0  0  0  0  0  0
  -37.6187  -43.0265   20.9342 F   0  0  0  0  0  0  0  0  0  0  0  0
  -39.0278  -41.9447   22.2159 F   0  0  0  0  0  0  0  0  0  0  0  0
  -41.2620  -45.1962   19.3103 F   0  0  0  0  0  0  0  0  0  0  0  0
  -36.2798  -44.9969   16.8813 N   0  0  0  0  0  0  0  0  0  0  0  0
  -33.3828  -44.6874   16.1875 N   0  0  0  0  0  0  0  0  0  0  0  0
  -37.8477  -45.8636   21.7790 N   0  0  0  0  0  0  0  0  0  0  0  0
  -37.3543  -46.7887   23.9182 N   0  0  0  0  0  0  0  0  0  0  0  0
  -35.7750  -47.2194   16.4681 O   0  0  0  0  0  0  0  0  0  0  0  0
  -40.0227  -44.6868   22.9675 O   0  0  0  0  0  0  0  0  0  0  0  0
  -29.4240  -45.0452   16.5830 Cl  0  0  0  0  0  0  0  0  0  0  0  0
  -33.5412  -48.4192   17.5922 Cl  0  0  0  0  0  0  0  0  0  0  0  0
  -37.2698  -47.7765   23.6111 H   0  0  0  0  0  0  0  0  0  0  0  0
  7  1  1  6
 18  2  1  0
  2 19  1  1
  2 20  1  0
  2 21  1  0
  3  4  2  0
  7  3  1  0
  3 15  1  0
  4  5  1  0
  5 13  2  0
  5 23  1  0
  6  8  1  0
 23  6  1  0
  6 27  2  0
  7 18  1  0
 25  7  1  0
  8 12  1  0
  8 24  2  0
  9 10  2  0
 24  9  1  0
 11 10  1  0
 10 29  1  0
 12 11  2  0
 12 30  1  0
 14 13  1  0
 15 14  2  0
 15 22  1  0
 16 17  1  0
 16 25  1  0
 16 26  2  0
 17 28  1  0
 18 28  1  1
 26 31  1  0
M  END
$$$$
