
     RDKit          3D

 31 33  0  0  0  0  0  0  0  0999 V2000
  -40.8836  -46.3811   21.1825 C   0  0  0  0  0  0  0  0  0  0  0  0
  -38.8936  -43.2366   21.9931 C   0  0  1  0  0  0  0  0  0  0  0  0
  -39.5827  -45.2133   19.5490 C   0  0  0  0  0  0  0  0  0  0  0  0
  -38.3966  -45.0376   18.8375 C   0  0  0  0  0  0  0  0  0  0  0  0
  -38.3353  -44.8252   17.4835 C   0  0  0  0  0  0  0  0  0  0  0  0
  -36.0014  -45.5377   17.1037 C   0  0  0  0  0  0  0  0  0  0  0  0
  -39.5932  -45.4848   20.9850 C   0  0  1  0  0  0  0  0  0  0  0  0
  -34.6016  -45.2525   17.0951 C   0  0  0  0  0  0  0  0  0  0  0  0
  -32.9471  -43.6232   17.6358 C   0  0  0  0  0  0  0  0  0  0  0  0
  -31.9285  -44.4737   17.2496 C   0  0  0  0  0  0  0  0  0  0  0  0
  -32.2675  -45.7155   16.7860 C   0  0  0  0  0  0  0  0  0  0  0  0
  -33.6146  -46.1064   16.7081 C   0  0  0  0  0  0  0  0  0  0  0  0
  -39.5183  -44.7823   16.7794 C   0  0  0  0  0  0  0  0  0  0  0  0
  -40.7143  -44.9503   17.4421 C   0  0  0  0  0  0  0  0  0  0  0  0
  -40.7533  -45.1635   18.8142 C   0  0  0  0  0  0  0  0  0  0  0  0
  -37.9587  -46.1600   22.6752 C   0  0  0  0  0  0  0  0  0  0  0  0
  -38.7497  -45.4275   23.7031 C   0  0  0  0  0  0  0  0  0  0  0  0
  -39.8170  -44.3796   21.9214 C   0  0  1  0  0  0  0  0  0  0  0  0
  -39.5987  -42.1417   21.4161 F   0  0  0  0  0  0  0  0  0  0  0  0
  -38.5313  -42.7937   23.2211 F   0  0  0  0  0  0  0  0  0  0  0  0
  -37.7857  -43.3400   21.1398 F   0  0  0  0  0  0  0  0  0  0  0  0
  -41.9311  -45.2882   19.4652 F   0  0  0  0  0  0  0  0  0  0  0  0
  -37.0644  -44.6504   16.8088 N   0  0  0  0  0  0  0  0  0  0  0  0
  -34.2220  -44.0203   17.5521 N   0  0  0  0  0  0  0  0  0  0  0  0
  -38.5599  -46.3768   21.4212 N   0  0  0  0  0  0  0  0  0  0  0  0
  -36.7760  -46.5553   22.9828 N   0  0  0  0  0  0  0  0  0  0  0  0
  -36.3885  -46.7401   17.4092 O   0  0  0  0  0  0  0  0  0  0  0  0
  -39.9377  -44.9437   23.2117 O   0  0  0  0  0  0  0  0  0  0  0  0
  -30.2655  -43.9455   17.3635 Cl  0  0  0  0  0  0  0  0  0  0  0  0
  -33.9185  -47.6859   16.0701 Cl  0  0  0  0  0  0  0  0  0  0  0  0
  -36.5460  -47.3105   23.6417 H   0  0  0  0  0  0  0  0  0  0  0  0
  1  7  1  6
 18  2  1  0
  2 19  1  6
  2 20  1  0
  2 21  1  0
  3  4  2  0
  7  3  1  6
  3 15  1  0
  4  5  1  0
  5 13  2  0
  5 23  1  0
  6  8  1  0
 23  6  1  0
  6 27  2  0
  7 18  1  0
 25  7  1  0
  8 12  1  0
  8 24  2  0
  9 10  2  0
 24  9  1  0
 11 10  1  0
 10 29  1  0
 12 11  2  0
 12 30  1  0
 14 13  1  0
 15 14  2  0
 15 22  1  0
 16 17  1  0
 16 25  1  0
 16 26  2  0
 17 28  1  6
 18 28  1  1
 26 31  1  0
M  END
$$$$
