
     RDKit          3D

 31 33  0  0  0  0  0  0  0  0999 V2000
  -40.8406  -45.9404   20.9203 C   0  0  0  0  0  0  0  0  0  0  0  0
  -38.7868  -42.9889   22.1754 C   0  0  1  0  0  0  0  0  0  0  0  0
  -38.9239  -45.1064   19.7561 C   0  0  0  0  0  0  0  0  0  0  0  0
  -37.6017  -45.4115   19.4357 C   0  0  0  0  0  0  0  0  0  0  0  0
  -37.0846  -45.3550   18.1662 C   0  0  0  0  0  0  0  0  0  0  0  0
  -35.0065  -44.9973   16.8807 C   0  0  0  0  0  0  0  0  0  0  0  0
  -39.4401  -45.2283   21.1180 C   0  0  1  0  0  0  0  0  0  0  0  0
  -33.6098  -45.0504   16.5847 C   0  0  0  0  0  0  0  0  0  0  0  0
  -31.4199  -44.9667   17.5236 C   0  0  0  0  0  0  0  0  0  0  0  0
  -30.8405  -45.1869   16.2884 C   0  0  0  0  0  0  0  0  0  0  0  0
  -31.6658  -45.3367   15.2075 C   0  0  0  0  0  0  0  0  0  0  0  0
  -33.0609  -45.2672   15.3581 C   0  0  0  0  0  0  0  0  0  0  0  0
  -37.9217  -44.9733   17.1411 C   0  0  0  0  0  0  0  0  0  0  0  0
  -39.2360  -44.6620   17.4123 C   0  0  0  0  0  0  0  0  0  0  0  0
  -39.7387  -44.7252   18.7057 C   0  0  0  0  0  0  0  0  0  0  0  0
  -38.5607  -45.9185   23.2939 C   0  0  0  0  0  0  0  0  0  0  0  0
  -39.5273  -44.9972   23.9539 C   0  0  0  0  0  0  0  0  0  0  0  0
  -39.7928  -44.0154   21.8617 C   0  0  1  0  0  0  0  0  0  0  0  0
  -39.5211  -41.8821   22.6899 F   0  0  0  0  0  0  0  0  0  0  0  0
  -37.8792  -43.2687   23.1415 F   0  0  0  0  0  0  0  0  0  0  0  0
  -38.1749  -42.4220   21.0482 F   0  0  0  0  0  0  0  0  0  0  0  0
  -41.0182  -44.3807   18.9720 F   0  0  0  0  0  0  0  0  0  0  0  0
  -35.6977  -45.6867   17.9061 N   0  0  0  0  0  0  0  0  0  0  0  0
  -32.7514  -44.9053   17.6398 N   0  0  0  0  0  0  0  0  0  0  0  0
  -38.7463  -46.1880   21.9250 N   0  0  0  0  0  0  0  0  0  0  0  0
  -37.6132  -46.4184   24.0024 N   0  0  0  0  0  0  0  0  0  0  0  0
  -35.7677  -44.2380   16.1509 O   0  0  0  0  0  0  0  0  0  0  0  0
  -40.4072  -44.4279   23.0658 O   0  0  0  0  0  0  0  0  0  0  0  0
  -29.0994  -45.2661   16.1472 Cl  0  0  0  0  0  0  0  0  0  0  0  0
  -33.9969  -45.4339   13.9123 Cl  0  0  0  0  0  0  0  0  0  0  0  0
  -37.7285  -46.9316   24.8860 H   0  0  0  0  0  0  0  0  0  0  0  0
  1  7  1  6
 18  2  1  0
  2 19  1  1
  2 20  1  0
  2 21  1  0
  3  4  2  0
  7  3  1  6
  3 15  1  0
  4  5  1  0
  5 13  2  0
  5 23  1  0
  6  8  1  0
 23  6  1  0
  6 27  2  0
  7 18  1  0
 25  7  1  0
  8 12  1  0
  8 24  2  0
  9 10  2  0
 24  9  1  0
 11 10  1  0
 10 29  1  0
 12 11  2  0
 12 30  1  0
 14 13  1  0
 15 14  2  0
 15 22  1  0
 16 17  1  0
 16 25  1  0
 16 26  2  0
 17 28  1  6
 18 28  1  1
 26 31  1  0
M  END
$$$$
