
     RDKit          3D

 31 33  0  0  0  0  0  0  0  0999 V2000
  -40.3966  -46.6400   21.0069 C   0  0  0  0  0  0  0  0  0  0  0  0
  -38.3892  -43.4615   21.6174 C   0  0  1  0  0  0  0  0  0  0  0  0
  -38.8951  -45.7236   19.3851 C   0  0  0  0  0  0  0  0  0  0  0  0
  -37.7129  -46.1070   18.7531 C   0  0  0  0  0  0  0  0  0  0  0  0
  -37.5259  -46.0896   17.3941 C   0  0  0  0  0  0  0  0  0  0  0  0
  -35.2759  -45.5262   16.5460 C   0  0  0  0  0  0  0  0  0  0  0  0
  -39.0617  -45.8057   20.8348 C   0  0  1  0  0  0  0  0  0  0  0  0
  -33.8595  -45.6720   16.6619 C   0  0  0  0  0  0  0  0  0  0  0  0
  -32.1129  -46.9651   17.6425 C   0  0  0  0  0  0  0  0  0  0  0  0
  -31.1455  -46.2153   17.0007 C   0  0  0  0  0  0  0  0  0  0  0  0
  -31.5562  -45.1925   16.1900 C   0  0  0  0  0  0  0  0  0  0  0  0
  -32.9238  -44.9195   16.0206 C   0  0  0  0  0  0  0  0  0  0  0  0
  -38.5699  -45.6672   16.6009 C   0  0  0  0  0  0  0  0  0  0  0  0
  -39.7563  -45.2784   17.1832 C   0  0  0  0  0  0  0  0  0  0  0  0
  -39.9237  -45.3032   18.5620 C   0  0  0  0  0  0  0  0  0  0  0  0
  -37.6334  -46.2912   22.7605 C   0  0  0  0  0  0  0  0  0  0  0  0
  -38.4986  -45.4140   23.5975 C   0  0  0  0  0  0  0  0  0  0  0  0
  -39.3405  -44.5834   21.5942 C   0  0  1  0  0  0  0  0  0  0  0  0
  -38.1157  -43.2237   22.9949 F   0  0  0  0  0  0  0  0  0  0  0  0
  -37.1695  -43.6563   21.0610 F   0  0  0  0  0  0  0  0  0  0  0  0
  -38.9405  -42.2339   21.2232 F   0  0  0  0  0  0  0  0  0  0  0  0
  -41.0760  -44.8832   19.1300 F   0  0  0  0  0  0  0  0  0  0  0  0
  -36.2676  -46.5028   16.8050 N   0  0  0  0  0  0  0  0  0  0  0  0
  -33.4088  -46.6846   17.4637 N   0  0  0  0  0  0  0  0  0  0  0  0
  -38.1107  -46.6560   21.4877 N   0  0  0  0  0  0  0  0  0  0  0  0
  -36.5031  -46.6692   23.2392 N   0  0  0  0  0  0  0  0  0  0  0  0
  -35.7532  -44.3792   16.1648 O   0  0  0  0  0  0  0  0  0  0  0  0
  -39.6123  -44.9721   22.9256 O   0  0  0  0  0  0  0  0  0  0  0  0
  -29.4545  -46.5904   17.2405 Cl  0  0  0  0  0  0  0  0  0  0  0  0
  -33.3168  -43.5777   15.0011 Cl  0  0  0  0  0  0  0  0  0  0  0  0
  -36.3623  -47.4145   23.9335 H   0  0  0  0  0  0  0  0  0  0  0  0
  1  7  1  6
 18  2  1  0
  2 19  1  1
  2 20  1  0
  2 21  1  0
  3  4  2  0
  7  3  1  6
  3 15  1  0
  4  5  1  0
  5 13  2  0
  5 23  1  0
  6  8  1  0
 23  6  1  0
  6 27  2  0
  7 18  1  0
 25  7  1  0
  8 12  1  0
  8 24  2  0
  9 10  2  0
 24  9  1  0
 11 10  1  0
 10 29  1  0
 12 11  2  0
 12 30  1  0
 14 13  1  0
 15 14  2  0
 15 22  1  0
 16 17  1  0
 16 25  1  0
 16 26  2  0
 17 28  1  6
 18 28  1  1
 26 31  1  0
M  END
$$$$
