
     RDKit          3D

 31 33  0  0  0  0  0  0  0  0999 V2000
  -40.4604  -46.4824   20.9939 C   0  0  0  0  0  0  0  0  0  0  0  0
  -38.6959  -43.1703   21.6429 C   0  0  1  0  0  0  0  0  0  0  0  0
  -39.1123  -45.3875   19.3481 C   0  0  0  0  0  0  0  0  0  0  0  0
  -37.9282  -45.6358   18.6551 C   0  0  0  0  0  0  0  0  0  0  0  0
  -37.8029  -45.5549   17.2914 C   0  0  0  0  0  0  0  0  0  0  0  0
  -35.4228  -45.0053   16.9279 C   0  0  0  0  0  0  0  0  0  0  0  0
  -39.2075  -45.5339   20.7992 C   0  0  1  0  0  0  0  0  0  0  0  0
  -34.0394  -45.3362   16.7941 C   0  0  0  0  0  0  0  0  0  0  0  0
  -32.2982  -46.7636   17.5781 C   0  0  0  0  0  0  0  0  0  0  0  0
  -31.3969  -46.2194   16.6828 C   0  0  0  0  0  0  0  0  0  0  0  0
  -31.8371  -45.2294   15.8474 C   0  0  0  0  0  0  0  0  0  0  0  0
  -33.1686  -44.7849   15.9048 C   0  0  0  0  0  0  0  0  0  0  0  0
  -38.9151  -45.2068   16.5572 C   0  0  0  0  0  0  0  0  0  0  0  0
  -40.1062  -44.9520   17.2008 C   0  0  0  0  0  0  0  0  0  0  0  0
  -40.2105  -45.0390   18.5832 C   0  0  0  0  0  0  0  0  0  0  0  0
  -37.6603  -45.9649   22.6444 C   0  0  0  0  0  0  0  0  0  0  0  0
  -38.5568  -45.1929   23.5493 C   0  0  0  0  0  0  0  0  0  0  0  0
  -39.5519  -44.3664   21.6158 C   0  0  1  0  0  0  0  0  0  0  0  0
  -38.9573  -42.4881   20.4202 F   0  0  0  0  0  0  0  0  0  0  0  0
  -38.9350  -42.2443   22.6025 F   0  0  0  0  0  0  0  0  0  0  0  0
  -37.3253  -43.4431   21.5264 F   0  0  0  0  0  0  0  0  0  0  0  0
  -41.3711  -44.7494   19.2125 F   0  0  0  0  0  0  0  0  0  0  0  0
  -36.5383  -45.8271   16.6372 N   0  0  0  0  0  0  0  0  0  0  0  0
  -33.5609  -46.3226   17.6121 N   0  0  0  0  0  0  0  0  0  0  0  0
  -38.1618  -46.3237   21.3792 N   0  0  0  0  0  0  0  0  0  0  0  0
  -36.4827  -46.2634   23.0613 N   0  0  0  0  0  0  0  0  0  0  0  0
  -35.7392  -43.8240   17.3674 O   0  0  0  0  0  0  0  0  0  0  0  0
  -39.7317  -44.8226   22.9413 O   0  0  0  0  0  0  0  0  0  0  0  0
  -29.7490  -46.8032   16.6458 Cl  0  0  0  0  0  0  0  0  0  0  0  0
  -33.5956  -43.5022   14.8247 Cl  0  0  0  0  0  0  0  0  0  0  0  0
  -36.2576  -46.9680   23.7756 H   0  0  0  0  0  0  0  0  0  0  0  0
  1  7  1  6
 18  2  1  0
  2 19  1  6
  2 20  1  0
  2 21  1  0
  3  4  2  0
  7  3  1  6
  3 15  1  0
  4  5  1  0
  5 13  2  0
  5 23  1  0
  6  8  1  0
 23  6  1  0
  6 27  2  0
  7 18  1  0
 25  7  1  0
  8 12  1  0
  8 24  2  0
  9 10  2  0
 24  9  1  0
 11 10  1  0
 10 29  1  0
 12 11  2  0
 12 30  1  0
 14 13  1  0
 15 14  2  0
 15 22  1  0
 16 17  1  0
 16 25  1  0
 16 26  2  0
 17 28  1  6
 18 28  1  1
 26 31  1  0
M  END
$$$$
