
     RDKit          3D

 31 33  0  0  0  0  0  0  0  0999 V2000
  -40.1688  -46.9883   20.7705 C   0  0  0  0  0  0  0  0  0  0  0  0
  -38.9176  -43.5021   21.6786 C   0  0  1  0  0  0  0  0  0  0  0  0
  -38.9582  -45.6031   19.2540 C   0  0  0  0  0  0  0  0  0  0  0  0
  -37.7187  -45.6338   18.6532 C   0  0  0  0  0  0  0  0  0  0  0  0
  -37.4829  -45.3687   17.3292 C   0  0  0  0  0  0  0  0  0  0  0  0
  -34.9846  -45.0088   17.1819 C   0  0  0  0  0  0  0  0  0  0  0  0
  -39.1757  -45.8175   20.6418 C   0  0  1  0  0  0  0  0  0  0  0  0
  -33.7023  -45.4829   16.7256 C   0  0  0  0  0  0  0  0  0  0  0  0
  -32.3983  -46.2878   14.9093 C   0  0  0  0  0  0  0  0  0  0  0  0
  -31.2448  -46.3263   15.6543 C   0  0  0  0  0  0  0  0  0  0  0  0
  -31.3230  -45.9361   16.9615 C   0  0  0  0  0  0  0  0  0  0  0  0
  -32.5675  -45.5188   17.4733 C   0  0  0  0  0  0  0  0  0  0  0  0
  -38.5716  -45.0400   16.5217 C   0  0  0  0  0  0  0  0  0  0  0  0
  -39.8368  -44.9956   17.0865 C   0  0  0  0  0  0  0  0  0  0  0  0
  -40.0397  -45.2673   18.4147 C   0  0  0  0  0  0  0  0  0  0  0  0
  -38.3626  -46.2863   22.9035 C   0  0  0  0  0  0  0  0  0  0  0  0
  -39.5019  -45.5798   23.4795 C   0  0  0  0  0  0  0  0  0  0  0  0
  -39.8326  -44.6208   21.3483 C   0  0  1  0  0  0  0  0  0  0  0  0
  -39.6613  -42.5285   22.3957 F   0  0  0  0  0  0  0  0  0  0  0  0
  -37.8440  -43.8381   22.4997 F   0  0  0  0  0  0  0  0  0  0  0  0
  -38.3579  -42.8075   20.6362 F   0  0  0  0  0  0  0  0  0  0  0  0
  -41.3063  -45.2032   18.8925 F   0  0  0  0  0  0  0  0  0  0  0  0
  -36.2250  -45.4026   16.6784 N   0  0  0  0  0  0  0  0  0  0  0  0
  -33.5643  -45.8893   15.4117 N   0  0  0  0  0  0  0  0  0  0  0  0
  -38.0466  -46.1114   21.5016 N   0  0  0  0  0  0  0  0  0  0  0  0
  -37.6374  -47.0583   23.6491 N   0  0  0  0  0  0  0  0  0  0  0  0
  -34.9251  -44.1575   18.1363 O   0  0  0  0  0  0  0  0  0  0  0  0
  -40.3573  -45.0884   22.5703 O   0  0  0  0  0  0  0  0  0  0  0  0
  -29.7198  -46.8639   14.9349 Cl  0  0  0  0  0  0  0  0  0  0  0  0
  -32.5682  -45.1084   19.1962 Cl  0  0  0  0  0  0  0  0  0  0  0  0
  -38.1095  -47.5796   24.4124 H   0  0  0  0  0  0  0  0  0  0  0  0
  7  1  1  6
 18  2  1  0
  2 19  1  1
  2 20  1  0
  2 21  1  0
  3  4  2  0
  7  3  1  0
  3 15  1  0
  4  5  1  0
  5 13  2  0
  5 23  1  0
  6  8  1  0
 23  6  1  0
  6 27  2  0
  7 18  1  0
 25  7  1  0
  8 12  1  0
  8 24  2  0
  9 10  2  0
 24  9  1  0
 11 10  1  0
 10 29  1  0
 12 11  2  0
 12 30  1  0
 14 13  1  0
 15 14  2  0
 15 22  1  0
 16 17  1  0
 16 25  1  0
 16 26  2  0
 17 28  1  0
 18 28  1  1
 26 31  1  0
M  END
$$$$
