
     RDKit          3D

 31 33  0  0  0  0  0  0  0  0999 V2000
  -41.0928  -45.6766   20.9852 C   0  0  0  0  0  0  0  0  0  0  0  0
  -38.5224  -42.9744   21.7571 C   0  0  1  0  0  0  0  0  0  0  0  0
  -39.3811  -45.0367   19.4408 C   0  0  0  0  0  0  0  0  0  0  0  0
  -39.7874  -43.9362   18.6871 C   0  0  0  0  0  0  0  0  0  0  0  0
  -39.5516  -43.7943   17.3431 C   0  0  0  0  0  0  0  0  0  0  0  0
  -39.0488  -41.8007   15.9750 C   0  0  0  0  0  0  0  0  0  0  0  0
  -39.6143  -45.1193   20.8812 C   0  0  1  0  0  0  0  0  0  0  0  0
  -39.2776  -40.5584   15.3076 C   0  0  0  0  0  0  0  0  0  0  0  0
  -39.8300  -39.5467   13.2206 C   0  0  0  0  0  0  0  0  0  0  0  0
  -39.8341  -38.2869   13.7890 C   0  0  0  0  0  0  0  0  0  0  0  0
  -39.5557  -38.1821   15.1244 C   0  0  0  0  0  0  0  0  0  0  0  0
  -39.2750  -39.3272   15.8883 C   0  0  0  0  0  0  0  0  0  0  0  0
  -38.8707  -44.8006   16.6941 C   0  0  0  0  0  0  0  0  0  0  0  0
  -38.4510  -45.9069   17.3997 C   0  0  0  0  0  0  0  0  0  0  0  0
  -38.7013  -46.0304   18.7604 C   0  0  0  0  0  0  0  0  0  0  0  0
  -38.3818  -45.9246   22.8349 C   0  0  0  0  0  0  0  0  0  0  0  0
  -39.0876  -44.9139   23.6711 C   0  0  0  0  0  0  0  0  0  0  0  0
  -39.6746  -43.8848   21.6691 C   0  0  1  0  0  0  0  0  0  0  0  0
  -37.8303  -43.3509   22.9437 F   0  0  0  0  0  0  0  0  0  0  0  0
  -37.5839  -43.0476   20.7828 F   0  0  0  0  0  0  0  0  0  0  0  0
  -38.8630  -41.6437   22.0393 F   0  0  0  0  0  0  0  0  0  0  0  0
  -38.3221  -47.1357   19.4395 F   0  0  0  0  0  0  0  0  0  0  0  0
  -40.0040  -42.6210   16.6222 N   0  0  0  0  0  0  0  0  0  0  0  0
  -39.5599  -40.6212   13.9706 N   0  0  0  0  0  0  0  0  0  0  0  0
  -38.8743  -46.1566   21.5370 N   0  0  0  0  0  0  0  0  0  0  0  0
  -37.3667  -46.5304   23.3371 N   0  0  0  0  0  0  0  0  0  0  0  0
  -37.8380  -42.2712   16.0137 O   0  0  0  0  0  0  0  0  0  0  0  0
  -40.0667  -44.2440   22.9786 O   0  0  0  0  0  0  0  0  0  0  0  0
  -40.1889  -36.8889   12.8003 Cl  0  0  0  0  0  0  0  0  0  0  0  0
  -38.9011  -39.0626   17.5570 Cl  0  0  0  0  0  0  0  0  0  0  0  0
  -37.3562  -47.0575   24.2199 H   0  0  0  0  0  0  0  0  0  0  0  0
  1  7  1  6
 18  2  1  0
  2 19  1  1
  2 20  1  0
  2 21  1  0
  3  4  2  0
  7  3  1  6
  3 15  1  0
  4  5  1  0
  5 13  2  0
  5 23  1  0
  6  8  1  0
 23  6  1  0
  6 27  2  0
  7 18  1  0
 25  7  1  0
  8 12  1  0
  8 24  2  0
  9 10  2  0
 24  9  1  0
 11 10  1  0
 10 29  1  0
 12 11  2  0
 12 30  1  0
 14 13  1  0
 15 14  2  0
 15 22  1  0
 16 17  1  0
 16 25  1  0
 16 26  2  0
 17 28  1  6
 18 28  1  1
 26 31  1  0
M  END
$$$$
