
     RDKit          3D

 31 33  0  0  0  0  0  0  0  0999 V2000
  -40.6985  -46.5341   20.9448 C   0  0  0  0  0  0  0  0  0  0  0  0
  -39.3403  -43.2340   22.2751 C   0  0  1  0  0  0  0  0  0  0  0  0
  -39.0693  -45.2347   19.7692 C   0  0  0  0  0  0  0  0  0  0  0  0
  -37.7508  -44.9047   19.4581 C   0  0  0  0  0  0  0  0  0  0  0  0
  -37.2960  -44.6694   18.1853 C   0  0  0  0  0  0  0  0  0  0  0  0
  -35.2524  -44.8995   16.8180 C   0  0  0  0  0  0  0  0  0  0  0  0
  -39.4947  -45.5235   21.1373 C   0  0  1  0  0  0  0  0  0  0  0  0
  -33.8876  -45.3119   16.7274 C   0  0  0  0  0  0  0  0  0  0  0  0
  -32.2156  -46.7195   17.6800 C   0  0  0  0  0  0  0  0  0  0  0  0
  -31.2922  -46.3315   16.7278 C   0  0  0  0  0  0  0  0  0  0  0  0
  -31.6864  -45.4280   15.7790 C   0  0  0  0  0  0  0  0  0  0  0  0
  -32.9941  -44.9147   15.7802 C   0  0  0  0  0  0  0  0  0  0  0  0
  -38.1959  -44.7644   17.1468 C   0  0  0  0  0  0  0  0  0  0  0  0
  -39.5093  -45.0875   17.4084 C   0  0  0  0  0  0  0  0  0  0  0  0
  -39.9487  -45.3210   18.7054 C   0  0  0  0  0  0  0  0  0  0  0  0
  -38.4029  -46.0698   23.2571 C   0  0  0  0  0  0  0  0  0  0  0  0
  -39.5324  -45.4237   23.9819 C   0  0  0  0  0  0  0  0  0  0  0  0
  -40.0919  -44.4542   21.9425 C   0  0  1  0  0  0  0  0  0  0  0  0
  -38.0991  -43.6856   22.8083 F   0  0  0  0  0  0  0  0  0  0  0  0
  -38.9897  -42.4113   21.2574 F   0  0  0  0  0  0  0  0  0  0  0  0
  -39.8665  -42.5132   23.3567 F   0  0  0  0  0  0  0  0  0  0  0  0
  -41.2466  -45.5987   18.9603 F   0  0  0  0  0  0  0  0  0  0  0  0
  -35.9090  -44.3301   17.9355 N   0  0  0  0  0  0  0  0  0  0  0  0
  -33.4549  -46.2158   17.6585 N   0  0  0  0  0  0  0  0  0  0  0  0
  -38.5694  -46.3245   21.8830 N   0  0  0  0  0  0  0  0  0  0  0  0
  -37.3409  -46.3613   23.9181 N   0  0  0  0  0  0  0  0  0  0  0  0
  -36.0150  -45.0425   15.7756 O   0  0  0  0  0  0  0  0  0  0  0  0
  -40.5511  -45.0424   23.1428 O   0  0  0  0  0  0  0  0  0  0  0  0
  -29.6752  -46.9962   16.7641 Cl  0  0  0  0  0  0  0  0  0  0  0  0
  -33.3617  -43.7510   14.5535 Cl  0  0  0  0  0  0  0  0  0  0  0  0
  -37.2765  -47.0460   24.6826 H   0  0  0  0  0  0  0  0  0  0  0  0
  1  7  1  6
 18  2  1  0
  2 19  1  1
  2 20  1  0
  2 21  1  0
  3  4  2  0
  7  3  1  6
  3 15  1  0
  4  5  1  0
  5 13  2  0
  5 23  1  0
  6  8  1  0
 23  6  1  0
  6 27  2  0
  7 18  1  0
 25  7  1  0
  8 12  1  0
  8 24  2  0
  9 10  2  0
 24  9  1  0
 11 10  1  0
 10 29  1  0
 12 11  2  0
 12 30  1  0
 14 13  1  0
 15 14  2  0
 15 22  1  0
 16 17  1  0
 16 25  1  0
 16 26  2  0
 17 28  1  6
 18 28  1  1
 26 31  1  0
M  END
$$$$
