
     RDKit          3D

 31 33  0  0  0  0  0  0  0  0999 V2000
  -40.3637  -46.2896   21.0770 C   0  0  0  0  0  0  0  0  0  0  0  0
  -38.3266  -43.1144   21.5995 C   0  0  1  0  0  0  0  0  0  0  0  0
  -38.9273  -45.3794   19.3939 C   0  0  0  0  0  0  0  0  0  0  0  0
  -37.7682  -45.7553   18.7161 C   0  0  0  0  0  0  0  0  0  0  0  0
  -37.6359  -45.7404   17.3506 C   0  0  0  0  0  0  0  0  0  0  0  0
  -35.3727  -45.1869   16.5318 C   0  0  0  0  0  0  0  0  0  0  0  0
  -39.0352  -45.4586   20.8493 C   0  0  1  0  0  0  0  0  0  0  0  0
  -33.9678  -45.3707   16.7149 C   0  0  0  0  0  0  0  0  0  0  0  0
  -32.3050  -46.7179   17.7657 C   0  0  0  0  0  0  0  0  0  0  0  0
  -31.2885  -45.9877   17.1798 C   0  0  0  0  0  0  0  0  0  0  0  0
  -31.6326  -44.9471   16.3608 C   0  0  0  0  0  0  0  0  0  0  0  0
  -32.9829  -44.6369   16.1279 C   0  0  0  0  0  0  0  0  0  0  0  0
  -38.7141  -45.3288   16.5988 C   0  0  0  0  0  0  0  0  0  0  0  0
  -39.8795  -44.9477   17.2270 C   0  0  0  0  0  0  0  0  0  0  0  0
  -39.9914  -44.9698   18.6114 C   0  0  0  0  0  0  0  0  0  0  0  0
  -37.5309  -45.9436   22.7164 C   0  0  0  0  0  0  0  0  0  0  0  0
  -38.3597  -45.0630   23.5861 C   0  0  0  0  0  0  0  0  0  0  0  0
  -39.2804  -44.2343   21.6170 C   0  0  1  0  0  0  0  0  0  0  0  0
  -38.8200  -42.1800   22.5546 F   0  0  0  0  0  0  0  0  0  0  0  0
  -37.0552  -43.3616   21.9966 F   0  0  0  0  0  0  0  0  0  0  0  0
  -38.3552  -42.3550   20.4210 F   0  0  0  0  0  0  0  0  0  0  0  0
  -41.1234  -44.5574   19.2240 F   0  0  0  0  0  0  0  0  0  0  0  0
  -36.3988  -46.1453   16.7128 N   0  0  0  0  0  0  0  0  0  0  0  0
  -33.5830  -46.4020   17.5270 N   0  0  0  0  0  0  0  0  0  0  0  0
  -38.0602  -46.3097   21.4647 N   0  0  0  0  0  0  0  0  0  0  0  0
  -36.3830  -46.3232   23.1496 N   0  0  0  0  0  0  0  0  0  0  0  0
  -35.8030  -44.0187   16.1591 O   0  0  0  0  0  0  0  0  0  0  0  0
  -39.4988  -44.6199   22.9591 O   0  0  0  0  0  0  0  0  0  0  0  0
  -29.6214  -46.4090   17.4976 Cl  0  0  0  0  0  0  0  0  0  0  0  0
  -33.2910  -43.2759   15.1046 Cl  0  0  0  0  0  0  0  0  0  0  0  0
  -36.2175  -46.9402   23.9554 H   0  0  0  0  0  0  0  0  0  0  0  0
  1  7  1  6
 18  2  1  0
  2 19  1  1
  2 20  1  0
  2 21  1  0
  3  4  2  0
  7  3  1  6
  3 15  1  0
  4  5  1  0
  5 13  2  0
  5 23  1  0
  6  8  1  0
 23  6  1  0
  6 27  2  0
  7 18  1  0
 25  7  1  0
  8 12  1  0
  8 24  2  0
  9 10  2  0
 24  9  1  0
 11 10  1  0
 10 29  1  0
 12 11  2  0
 12 30  1  0
 14 13  1  0
 15 14  2  0
 15 22  1  0
 16 17  1  0
 16 25  1  0
 16 26  2  0
 17 28  1  6
 18 28  1  1
 26 31  1  0
M  END
$$$$
