
     RDKit          3D

 31 33  0  0  0  0  0  0  0  0999 V2000
  -40.1683  -46.9422   21.0453 C   0  0  0  0  0  0  0  0  0  0  0  0
  -39.1812  -43.4258   22.1429 C   0  0  1  0  0  0  0  0  0  0  0  0
  -38.9446  -45.4397   19.6563 C   0  0  0  0  0  0  0  0  0  0  0  0
  -37.6930  -45.1026   19.1891 C   0  0  0  0  0  0  0  0  0  0  0  0
  -37.4039  -44.7744   17.8900 C   0  0  0  0  0  0  0  0  0  0  0  0
  -35.3376  -45.1635   16.4857 C   0  0  0  0  0  0  0  0  0  0  0  0
  -39.2381  -45.7143   21.0194 C   0  0  1  0  0  0  0  0  0  0  0  0
  -33.9298  -45.4320   16.6375 C   0  0  0  0  0  0  0  0  0  0  0  0
  -32.2442  -46.7330   17.6928 C   0  0  0  0  0  0  0  0  0  0  0  0
  -31.2329  -46.1498   16.9688 C   0  0  0  0  0  0  0  0  0  0  0  0
  -31.5780  -45.1878   16.0619 C   0  0  0  0  0  0  0  0  0  0  0  0
  -32.9371  -44.8464   15.9165 C   0  0  0  0  0  0  0  0  0  0  0  0
  -38.4475  -44.7763   16.9647 C   0  0  0  0  0  0  0  0  0  0  0  0
  -39.7236  -45.1076   17.3932 C   0  0  0  0  0  0  0  0  0  0  0  0
  -39.9800  -45.4325   18.7000 C   0  0  0  0  0  0  0  0  0  0  0  0
  -38.5464  -46.2161   23.3141 C   0  0  0  0  0  0  0  0  0  0  0  0
  -39.7591  -45.5946   23.8353 C   0  0  0  0  0  0  0  0  0  0  0  0
  -40.0070  -44.5814   21.7180 C   0  0  1  0  0  0  0  0  0  0  0  0
  -40.0303  -42.5073   22.8142 F   0  0  0  0  0  0  0  0  0  0  0  0
  -38.1619  -43.7260   23.0433 F   0  0  0  0  0  0  0  0  0  0  0  0
  -38.5755  -42.6807   21.1631 F   0  0  0  0  0  0  0  0  0  0  0  0
  -41.2539  -45.7451   19.0413 F   0  0  0  0  0  0  0  0  0  0  0  0
  -36.1286  -44.4348   17.3750 N   0  0  0  0  0  0  0  0  0  0  0  0
  -33.5226  -46.3967   17.5398 N   0  0  0  0  0  0  0  0  0  0  0  0
  -38.1515  -45.9750   21.9424 N   0  0  0  0  0  0  0  0  0  0  0  0
  -37.8273  -46.9724   24.0815 N   0  0  0  0  0  0  0  0  0  0  0  0
  -35.8586  -45.6544   15.4243 O   0  0  0  0  0  0  0  0  0  0  0  0
  -40.5813  -45.1199   22.8873 O   0  0  0  0  0  0  0  0  0  0  0  0
  -29.5487  -46.6362   17.2117 Cl  0  0  0  0  0  0  0  0  0  0  0  0
  -33.2608  -43.5363   14.7696 Cl  0  0  0  0  0  0  0  0  0  0  0  0
  -36.8680  -47.2122   23.7661 H   0  0  0  0  0  0  0  0  0  0  0  0
  7  1  1  6
 18  2  1  0
  2 19  1  1
  2 20  1  0
  2 21  1  0
  3  4  2  0
  7  3  1  0
  3 15  1  0
  4  5  1  0
  5 13  2  0
  5 23  1  0
  6  8  1  0
 23  6  1  0
  6 27  2  0
  7 18  1  0
 25  7  1  0
  8 12  1  0
  8 24  2  0
  9 10  2  0
 24  9  1  0
 11 10  1  0
 10 29  1  0
 12 11  2  0
 12 30  1  0
 14 13  1  0
 15 14  2  0
 15 22  1  0
 16 17  1  0
 16 25  1  0
 16 26  2  0
 17 28  1  0
 18 28  1  1
 26 31  1  0
M  END
$$$$
