
     RDKit          3D

 31 33  0  0  0  0  0  0  0  0999 V2000
  -40.3647  -46.4478   20.7745 C   0  0  0  0  0  0  0  0  0  0  0  0
  -38.4773  -43.2244   21.5180 C   0  0  1  0  0  0  0  0  0  0  0  0
  -39.0717  -45.2928   19.1255 C   0  0  0  0  0  0  0  0  0  0  0  0
  -37.9008  -45.4113   18.3778 C   0  0  0  0  0  0  0  0  0  0  0  0
  -37.8369  -45.2503   17.0169 C   0  0  0  0  0  0  0  0  0  0  0  0
  -35.3895  -45.5805   17.0414 C   0  0  0  0  0  0  0  0  0  0  0  0
  -39.0972  -45.5212   20.5688 C   0  0  1  0  0  0  0  0  0  0  0  0
  -34.0624  -45.2119   16.6619 C   0  0  0  0  0  0  0  0  0  0  0  0
  -32.7598  -43.6459   15.4230 C   0  0  0  0  0  0  0  0  0  0  0  0
  -31.5827  -44.2434   15.8323 C   0  0  0  0  0  0  0  0  0  0  0  0
  -31.6658  -45.3297   16.6599 C   0  0  0  0  0  0  0  0  0  0  0  0
  -32.9158  -45.8170   17.0767 C   0  0  0  0  0  0  0  0  0  0  0  0
  -39.0010  -44.9530   16.3433 C   0  0  0  0  0  0  0  0  0  0  0  0
  -40.1813  -44.8260   17.0424 C   0  0  0  0  0  0  0  0  0  0  0  0
  -40.2231  -44.9924   18.4208 C   0  0  0  0  0  0  0  0  0  0  0  0
  -37.4710  -46.0978   22.3030 C   0  0  0  0  0  0  0  0  0  0  0  0
  -38.2984  -45.3577   23.2962 C   0  0  0  0  0  0  0  0  0  0  0  0
  -39.3668  -44.3951   21.4675 C   0  0  1  0  0  0  0  0  0  0  0  0
  -37.6371  -43.4340   22.6489 F   0  0  0  0  0  0  0  0  0  0  0  0
  -37.6160  -43.0410   20.4885 F   0  0  0  0  0  0  0  0  0  0  0  0
  -39.1225  -42.0283   21.8636 F   0  0  0  0  0  0  0  0  0  0  0  0
  -41.3763  -44.8277   19.1063 F   0  0  0  0  0  0  0  0  0  0  0  0
  -36.5825  -45.3882   16.3037 N   0  0  0  0  0  0  0  0  0  0  0  0
  -33.9373  -44.1295   15.8349 N   0  0  0  0  0  0  0  0  0  0  0  0
  -38.0460  -46.3695   21.0474 N   0  0  0  0  0  0  0  0  0  0  0  0
  -36.2827  -46.4495   22.6401 N   0  0  0  0  0  0  0  0  0  0  0  0
  -35.5679  -46.1658   18.1878 O   0  0  0  0  0  0  0  0  0  0  0  0
  -39.4918  -44.9232   22.7725 O   0  0  0  0  0  0  0  0  0  0  0  0
  -30.0488  -43.6033   15.2889 Cl  0  0  0  0  0  0  0  0  0  0  0  0
  -32.8923  -47.2186   18.0912 Cl  0  0  0  0  0  0  0  0  0  0  0  0
  -36.0290  -46.9862   23.4797 H   0  0  0  0  0  0  0  0  0  0  0  0
  1  7  1  6
 18  2  1  0
  2 19  1  1
  2 20  1  0
  2 21  1  0
  3  4  2  0
  7  3  1  6
  3 15  1  0
  4  5  1  0
  5 13  2  0
  5 23  1  0
  6  8  1  0
 23  6  1  0
  6 27  2  0
  7 18  1  0
 25  7  1  0
  8 12  1  0
  8 24  2  0
  9 10  2  0
 24  9  1  0
 11 10  1  0
 10 29  1  0
 12 11  2  0
 12 30  1  0
 14 13  1  0
 15 14  2  0
 15 22  1  0
 16 17  1  0
 16 25  1  0
 16 26  2  0
 17 28  1  6
 18 28  1  1
 26 31  1  0
M  END
$$$$
