
     RDKit          3D

 31 33  0  0  0  0  0  0  0  0999 V2000
  -40.2218  -46.7191   21.2052 C   0  0  0  0  0  0  0  0  0  0  0  0
  -38.4995  -43.4234   22.0510 C   0  0  1  0  0  0  0  0  0  0  0  0
  -38.9470  -45.4723   19.6227 C   0  0  0  0  0  0  0  0  0  0  0  0
  -37.7406  -45.2109   19.0106 C   0  0  0  0  0  0  0  0  0  0  0  0
  -37.5802  -44.9504   17.6745 C   0  0  0  0  0  0  0  0  0  0  0  0
  -35.3543  -45.5978   16.6649 C   0  0  0  0  0  0  0  0  0  0  0  0
  -39.1027  -45.6765   21.0204 C   0  0  1  0  0  0  0  0  0  0  0  0
  -33.9446  -45.3078   16.5880 C   0  0  0  0  0  0  0  0  0  0  0  0
  -32.2532  -43.7483   15.9925 C   0  0  0  0  0  0  0  0  0  0  0  0
  -31.2419  -44.5465   16.4691 C   0  0  0  0  0  0  0  0  0  0  0  0
  -31.5901  -45.7498   17.0150 C   0  0  0  0  0  0  0  0  0  0  0  0
  -32.9520  -46.1071   17.0612 C   0  0  0  0  0  0  0  0  0  0  0  0
  -38.7165  -44.9445   16.8659 C   0  0  0  0  0  0  0  0  0  0  0  0
  -39.9512  -45.2006   17.4418 C   0  0  0  0  0  0  0  0  0  0  0  0
  -40.0782  -45.4590   18.7819 C   0  0  0  0  0  0  0  0  0  0  0  0
  -38.2147  -46.2701   23.2238 C   0  0  0  0  0  0  0  0  0  0  0  0
  -39.2210  -45.4376   23.8742 C   0  0  0  0  0  0  0  0  0  0  0  0
  -39.5632  -44.4180   21.7732 C   0  0  1  0  0  0  0  0  0  0  0  0
  -38.3003  -43.3798   23.4559 F   0  0  0  0  0  0  0  0  0  0  0  0
  -37.2544  -43.7192   21.5015 F   0  0  0  0  0  0  0  0  0  0  0  0
  -38.7380  -42.1194   21.6973 F   0  0  0  0  0  0  0  0  0  0  0  0
  -41.3194  -45.7001   19.2702 F   0  0  0  0  0  0  0  0  0  0  0  0
  -36.3552  -44.6896   17.0123 N   0  0  0  0  0  0  0  0  0  0  0  0
  -33.5344  -44.1040   16.0463 N   0  0  0  0  0  0  0  0  0  0  0  0
  -37.9670  -46.1169   21.8057 N   0  0  0  0  0  0  0  0  0  0  0  0
  -37.5447  -47.1343   23.9181 N   0  0  0  0  0  0  0  0  0  0  0  0
  -35.6625  -46.8063   16.3757 O   0  0  0  0  0  0  0  0  0  0  0  0
  -40.0645  -44.8339   23.0233 O   0  0  0  0  0  0  0  0  0  0  0  0
  -29.5540  -44.0233   16.3734 Cl  0  0  0  0  0  0  0  0  0  0  0  0
  -33.2809  -47.7182   17.7191 Cl  0  0  0  0  0  0  0  0  0  0  0  0
  -36.5369  -46.9486   24.0830 H   0  0  0  0  0  0  0  0  0  0  0  0
  7  1  1  6
 18  2  1  0
  2 19  1  1
  2 20  1  0
  2 21  1  0
  3  4  2  0
  7  3  1  0
  3 15  1  0
  4  5  1  0
  5 13  2  0
  5 23  1  0
  6  8  1  0
 23  6  1  0
  6 27  2  0
  7 18  1  0
 25  7  1  0
  8 12  1  0
  8 24  2  0
  9 10  2  0
 24  9  1  0
 11 10  1  0
 10 29  1  0
 12 11  2  0
 12 30  1  0
 14 13  1  0
 15 14  2  0
 15 22  1  0
 16 17  1  0
 16 25  1  0
 16 26  2  0
 17 28  1  0
 18 28  1  1
 26 31  1  0
M  END
$$$$
