
     RDKit          3D

 31 33  0  0  0  0  0  0  0  0999 V2000
  -40.5299  -46.8232   21.0783 C   0  0  0  0  0  0  0  0  0  0  0  0
  -38.7167  -43.5357   21.7479 C   0  0  1  0  0  0  0  0  0  0  0  0
  -39.2376  -45.6889   19.4269 C   0  0  0  0  0  0  0  0  0  0  0  0
  -38.0574  -45.9110   18.7514 C   0  0  0  0  0  0  0  0  0  0  0  0
  -37.8795  -45.7296   17.4045 C   0  0  0  0  0  0  0  0  0  0  0  0
  -35.7845  -45.0158   16.1820 C   0  0  0  0  0  0  0  0  0  0  0  0
  -39.3862  -45.8202   20.8340 C   0  0  1  0  0  0  0  0  0  0  0  0
  -34.3493  -45.1475   16.1699 C   0  0  0  0  0  0  0  0  0  0  0  0
  -32.3697  -45.3416   14.8695 C   0  0  0  0  0  0  0  0  0  0  0  0
  -31.5501  -45.3006   15.9712 C   0  0  0  0  0  0  0  0  0  0  0  0
  -32.1432  -45.1817   17.1964 C   0  0  0  0  0  0  0  0  0  0  0  0
  -33.5483  -45.1080   17.2676 C   0  0  0  0  0  0  0  0  0  0  0  0
  -38.9670  -45.2850   16.6528 C   0  0  0  0  0  0  0  0  0  0  0  0
  -40.1731  -45.0471   17.2934 C   0  0  0  0  0  0  0  0  0  0  0  0
  -40.3191  -45.2394   18.6427 C   0  0  0  0  0  0  0  0  0  0  0  0
  -38.4944  -46.3279   23.0573 C   0  0  0  0  0  0  0  0  0  0  0  0
  -39.4734  -45.4387   23.6734 C   0  0  0  0  0  0  0  0  0  0  0  0
  -39.8078  -44.5148   21.5273 C   0  0  1  0  0  0  0  0  0  0  0  0
  -38.2987  -43.0563   20.4787 F   0  0  0  0  0  0  0  0  0  0  0  0
  -39.0740  -42.4060   22.4799 F   0  0  0  0  0  0  0  0  0  0  0  0
  -37.5649  -43.9877   22.3406 F   0  0  0  0  0  0  0  0  0  0  0  0
  -41.5300  -44.9850   19.1958 F   0  0  0  0  0  0  0  0  0  0  0  0
  -36.6850  -45.9593   16.6781 N   0  0  0  0  0  0  0  0  0  0  0  0
  -33.6955  -45.2695   14.9581 N   0  0  0  0  0  0  0  0  0  0  0  0
  -38.2553  -46.2509   21.6316 N   0  0  0  0  0  0  0  0  0  0  0  0
  -37.8406  -47.1741   23.7883 N   0  0  0  0  0  0  0  0  0  0  0  0
  -36.2193  -43.9178   15.6876 O   0  0  0  0  0  0  0  0  0  0  0  0
  -40.3087  -44.8558   22.8001 O   0  0  0  0  0  0  0  0  0  0  0  0
  -29.7918  -45.3993   15.7958 Cl  0  0  0  0  0  0  0  0  0  0  0  0
  -34.2114  -45.0323   18.9081 Cl  0  0  0  0  0  0  0  0  0  0  0  0
  -37.3951  -46.8227   24.6573 H   0  0  0  0  0  0  0  0  0  0  0  0
  7  1  1  6
 18  2  1  0
  2 19  1  6
  2 20  1  0
  2 21  1  0
  3  4  2  0
  7  3  1  0
  3 15  1  0
  4  5  1  0
  5 13  2  0
  5 23  1  0
  6  8  1  0
 23  6  1  0
  6 27  2  0
  7 18  1  0
 25  7  1  0
  8 12  1  0
  8 24  2  0
  9 10  2  0
 24  9  1  0
 11 10  1  0
 10 29  1  0
 12 11  2  0
 12 30  1  0
 14 13  1  0
 15 14  2  0
 15 22  1  0
 16 17  1  0
 16 25  1  0
 16 26  2  0
 17 28  1  0
 18 28  1  1
 26 31  1  0
M  END
$$$$
