
     RDKit          3D

 31 33  0  0  0  0  0  0  0  0999 V2000
  -40.3395  -46.6142   21.1350 C   0  0  0  0  0  0  0  0  0  0  0  0
  -38.4822  -43.3503   21.7693 C   0  0  1  0  0  0  0  0  0  0  0  0
  -38.9615  -45.5649   19.4842 C   0  0  0  0  0  0  0  0  0  0  0  0
  -37.7920  -45.8712   18.7897 C   0  0  0  0  0  0  0  0  0  0  0  0
  -37.6659  -45.8005   17.4254 C   0  0  0  0  0  0  0  0  0  0  0  0
  -35.3674  -45.1843   16.7649 C   0  0  0  0  0  0  0  0  0  0  0  0
  -39.0604  -45.7022   20.9359 C   0  0  1  0  0  0  0  0  0  0  0  0
  -33.9700  -45.4305   16.9312 C   0  0  0  0  0  0  0  0  0  0  0  0
  -32.3562  -46.8525   17.9596 C   0  0  0  0  0  0  0  0  0  0  0  0
  -31.3153  -46.1664   17.3632 C   0  0  0  0  0  0  0  0  0  0  0  0
  -31.6226  -45.1096   16.5505 C   0  0  0  0  0  0  0  0  0  0  0  0
  -32.9605  -44.7395   16.3341 C   0  0  0  0  0  0  0  0  0  0  0  0
  -38.7620  -45.4023   16.6923 C   0  0  0  0  0  0  0  0  0  0  0  0
  -39.9383  -45.0893   17.3376 C   0  0  0  0  0  0  0  0  0  0  0  0
  -40.0436  -45.1670   18.7204 C   0  0  0  0  0  0  0  0  0  0  0  0
  -37.5255  -46.1686   22.7828 C   0  0  0  0  0  0  0  0  0  0  0  0
  -38.3997  -45.3677   23.6845 C   0  0  0  0  0  0  0  0  0  0  0  0
  -39.3716  -44.5219   21.7475 C   0  0  1  0  0  0  0  0  0  0  0  0
  -39.2586  -42.2942   22.3267 F   0  0  0  0  0  0  0  0  0  0  0  0
  -37.3802  -43.4086   22.5552 F   0  0  0  0  0  0  0  0  0  0  0  0
  -38.1780  -42.8374   20.5001 F   0  0  0  0  0  0  0  0  0  0  0  0
  -41.1878  -44.8208   19.3511 F   0  0  0  0  0  0  0  0  0  0  0  0
  -36.4171  -46.1343   16.7695 N   0  0  0  0  0  0  0  0  0  0  0  0
  -33.6217  -46.4798   17.7366 N   0  0  0  0  0  0  0  0  0  0  0  0
  -38.0373  -46.5187   21.5193 N   0  0  0  0  0  0  0  0  0  0  0  0
  -36.3568  -46.4984   23.2009 N   0  0  0  0  0  0  0  0  0  0  0  0
  -35.7659  -43.9599   16.5896 O   0  0  0  0  0  0  0  0  0  0  0  0
  -39.5639  -44.9671   23.0750 O   0  0  0  0  0  0  0  0  0  0  0  0
  -29.6649  -46.6618   17.6606 Cl  0  0  0  0  0  0  0  0  0  0  0  0
  -33.2201  -43.3636   15.3173 Cl  0  0  0  0  0  0  0  0  0  0  0  0
  -36.1545  -47.1316   23.9854 H   0  0  0  0  0  0  0  0  0  0  0  0
  1  7  1  6
 18  2  1  0
  2 19  1  1
  2 20  1  0
  2 21  1  0
  3  4  2  0
  7  3  1  6
  3 15  1  0
  4  5  1  0
  5 13  2  0
  5 23  1  0
  6  8  1  0
 23  6  1  0
  6 27  2  0
  7 18  1  0
 25  7  1  0
  8 12  1  0
  8 24  2  0
  9 10  2  0
 24  9  1  0
 11 10  1  0
 10 29  1  0
 12 11  2  0
 12 30  1  0
 14 13  1  0
 15 14  2  0
 15 22  1  0
 16 17  1  0
 16 25  1  0
 16 26  2  0
 17 28  1  6
 18 28  1  1
 26 31  1  0
M  END
$$$$
