
     RDKit          3D

 31 33  0  0  0  0  0  0  0  0999 V2000
  -39.9941  -46.7779   20.9619 C   0  0  0  0  0  0  0  0  0  0  0  0
  -38.9783  -43.2727   22.0689 C   0  0  1  0  0  0  0  0  0  0  0  0
  -38.6175  -45.3442   19.6454 C   0  0  0  0  0  0  0  0  0  0  0  0
  -37.3195  -45.0763   19.2686 C   0  0  0  0  0  0  0  0  0  0  0  0
  -36.9191  -44.7847   17.9906 C   0  0  0  0  0  0  0  0  0  0  0  0
  -34.8822  -45.1206   16.5306 C   0  0  0  0  0  0  0  0  0  0  0  0
  -39.0244  -45.5810   20.9862 C   0  0  1  0  0  0  0  0  0  0  0  0
  -33.4768  -45.4396   16.5485 C   0  0  0  0  0  0  0  0  0  0  0  0
  -31.7336  -46.7419   17.5039 C   0  0  0  0  0  0  0  0  0  0  0  0
  -30.7876  -46.2511   16.6372 C   0  0  0  0  0  0  0  0  0  0  0  0
  -31.1953  -45.3354   15.7085 C   0  0  0  0  0  0  0  0  0  0  0  0
  -32.5489  -44.9454   15.6867 C   0  0  0  0  0  0  0  0  0  0  0  0
  -37.8900  -44.7517   16.9899 C   0  0  0  0  0  0  0  0  0  0  0  0
  -39.2092  -45.0133   17.3261 C   0  0  0  0  0  0  0  0  0  0  0  0
  -39.5776  -45.3031   18.6143 C   0  0  0  0  0  0  0  0  0  0  0  0
  -38.5291  -46.0568   23.3366 C   0  0  0  0  0  0  0  0  0  0  0  0
  -39.7571  -45.3864   23.7504 C   0  0  0  0  0  0  0  0  0  0  0  0
  -39.8068  -44.4100   21.6021 C   0  0  1  0  0  0  0  0  0  0  0  0
  -38.0262  -43.7779   22.9929 F   0  0  0  0  0  0  0  0  0  0  0  0
  -38.2396  -42.6321   21.0771 F   0  0  0  0  0  0  0  0  0  0  0  0
  -39.6094  -42.2597   22.7455 F   0  0  0  0  0  0  0  0  0  0  0  0
  -40.8872  -45.5475   18.8635 F   0  0  0  0  0  0  0  0  0  0  0  0
  -35.5938  -44.5163   17.5679 N   0  0  0  0  0  0  0  0  0  0  0  0
  -33.0081  -46.3610   17.4662 N   0  0  0  0  0  0  0  0  0  0  0  0
  -38.0216  -45.8569   21.9956 N   0  0  0  0  0  0  0  0  0  0  0  0
  -37.8970  -46.8194   24.1713 N   0  0  0  0  0  0  0  0  0  0  0  0
  -35.4825  -45.4351   15.4445 O   0  0  0  0  0  0  0  0  0  0  0  0
  -40.4873  -44.9056   22.7327 O   0  0  0  0  0  0  0  0  0  0  0  0
  -29.1056  -46.7935   16.7309 Cl  0  0  0  0  0  0  0  0  0  0  0  0
  -32.9492  -43.6991   14.4937 Cl  0  0  0  0  0  0  0  0  0  0  0  0
  -36.9457  -47.1418   23.9102 H   0  0  0  0  0  0  0  0  0  0  0  0
  7  1  1  6
 18  2  1  0
  2 19  1  1
  2 20  1  0
  2 21  1  0
  3  4  2  0
  7  3  1  0
  3 15  1  0
  4  5  1  0
  5 13  2  0
  5 23  1  0
  6  8  1  0
 23  6  1  0
  6 27  2  0
  7 18  1  0
 25  7  1  0
  8 12  1  0
  8 24  2  0
  9 10  2  0
 24  9  1  0
 11 10  1  0
 10 29  1  0
 12 11  2  0
 12 30  1  0
 14 13  1  0
 15 14  2  0
 15 22  1  0
 16 17  1  0
 16 25  1  0
 16 26  2  0
 17 28  1  0
 18 28  1  1
 26 31  1  0
M  END
$$$$
