
     RDKit          3D

 31 33  0  0  0  0  0  0  0  0999 V2000
  -40.2609  -46.9291   21.4646 C   0  0  0  0  0  0  0  0  0  0  0  0
  -38.5504  -43.5644   22.0094 C   0  0  1  0  0  0  0  0  0  0  0  0
  -38.9483  -45.8496   19.7926 C   0  0  0  0  0  0  0  0  0  0  0  0
  -37.7753  -46.1895   19.1547 C   0  0  0  0  0  0  0  0  0  0  0  0
  -37.5562  -46.0783   17.8062 C   0  0  0  0  0  0  0  0  0  0  0  0
  -35.4600  -45.5815   16.4825 C   0  0  0  0  0  0  0  0  0  0  0  0
  -39.1356  -45.9107   21.1999 C   0  0  1  0  0  0  0  0  0  0  0  0
  -34.0284  -45.6076   16.6467 C   0  0  0  0  0  0  0  0  0  0  0  0
  -32.0473  -46.9180   16.7202 C   0  0  0  0  0  0  0  0  0  0  0  0
  -31.2327  -45.8186   16.8414 C   0  0  0  0  0  0  0  0  0  0  0  0
  -31.8291  -44.5895   16.8668 C   0  0  0  0  0  0  0  0  0  0  0  0
  -33.2324  -44.5123   16.7684 C   0  0  0  0  0  0  0  0  0  0  0  0
  -38.5902  -45.5832   17.0118 C   0  0  0  0  0  0  0  0  0  0  0  0
  -39.7871  -45.2271   17.6137 C   0  0  0  0  0  0  0  0  0  0  0  0
  -39.9754  -45.3515   18.9658 C   0  0  0  0  0  0  0  0  0  0  0  0
  -38.2983  -46.2771   23.4717 C   0  0  0  0  0  0  0  0  0  0  0  0
  -39.3170  -45.3828   24.0113 C   0  0  0  0  0  0  0  0  0  0  0  0
  -39.6099  -44.5821   21.8104 C   0  0  1  0  0  0  0  0  0  0  0  0
  -37.9235  -43.3377   20.7561 F   0  0  0  0  0  0  0  0  0  0  0  0
  -39.0000  -42.3180   22.4383 F   0  0  0  0  0  0  0  0  0  0  0  0
  -37.5186  -43.8762   22.8582 F   0  0  0  0  0  0  0  0  0  0  0  0
  -41.1740  -44.9822   19.4795 F   0  0  0  0  0  0  0  0  0  0  0  0
  -36.3685  -46.4289   17.1180 N   0  0  0  0  0  0  0  0  0  0  0  0
  -33.3714  -46.8236   16.6276 N   0  0  0  0  0  0  0  0  0  0  0  0
  -38.0187  -46.2689   22.0513 N   0  0  0  0  0  0  0  0  0  0  0  0
  -37.6459  -47.0662   24.2651 N   0  0  0  0  0  0  0  0  0  0  0  0
  -35.8839  -44.6817   15.6765 O   0  0  0  0  0  0  0  0  0  0  0  0
  -40.1400  -44.8688   23.0847 O   0  0  0  0  0  0  0  0  0  0  0  0
  -29.4764  -46.0016   16.9597 Cl  0  0  0  0  0  0  0  0  0  0  0  0
  -33.9020  -42.8771   16.8883 Cl  0  0  0  0  0  0  0  0  0  0  0  0
  -37.6085  -48.0750   24.0241 H   0  0  0  0  0  0  0  0  0  0  0  0
  7  1  1  6
 18  2  1  0
  2 19  1  6
  2 20  1  0
  2 21  1  0
  3  4  2  0
  7  3  1  0
  3 15  1  0
  4  5  1  0
  5 13  2  0
  5 23  1  0
  6  8  1  0
 23  6  1  0
  6 27  2  0
  7 18  1  0
 25  7  1  0
  8 12  1  0
  8 24  2  0
  9 10  2  0
 24  9  1  0
 11 10  1  0
 10 29  1  0
 12 11  2  0
 12 30  1  0
 14 13  1  0
 15 14  2  0
 15 22  1  0
 16 17  1  0
 16 25  1  0
 16 26  2  0
 17 28  1  0
 18 28  1  1
 26 31  1  0
M  END
$$$$
