
     RDKit          3D

 40 43  0  0  0  0  0  0  0  0999 V2000
   74.0527   55.4168   15.8498 C   0  0  0  0  0  0  0  0  0  0  0  0
   71.2564   57.2673   14.1559 C   0  0  0  0  0  0  0  0  0  0  0  0
   72.7960   59.1231   17.5498 C   0  0  0  0  0  0  0  0  0  0  0  0
   76.0179   60.6457   18.4157 C   0  0  0  0  0  0  0  0  0  0  0  0
   73.8853   60.9171   19.2657 C   0  0  1  0  0  0  0  0  0  0  0  0
   72.5163   60.8166   18.6303 C   0  0  0  0  0  0  0  0  0  0  0  0
   67.5713   52.7764   12.8601 C   0  0  0  0  0  0  0  0  0  0  0  0
   68.0582   52.4439   14.0974 C   0  0  0  0  0  0  0  0  0  0  0  0
   68.6155   53.3811   14.9624 C   0  0  0  0  0  0  0  0  0  0  0  0
   68.6806   54.6755   14.5678 C   0  0  0  0  0  0  0  0  0  0  0  0
   68.1877   55.0429   13.3031 C   0  0  0  0  0  0  0  0  0  0  0  0
   67.6511   54.1097   12.4826 C   0  0  0  0  0  0  0  0  0  0  0  0
   71.7933   55.0689   15.0699 C   0  0  0  0  0  0  0  0  0  0  0  0
   73.1851   55.1318   14.5984 C   0  0  2  0  0  0  0  0  0  0  0  0
   73.7182   53.8758   13.9777 C   0  0  0  0  0  0  0  0  0  0  0  0
   70.4497   58.4391   14.6840 C   0  0  2  0  0  0  0  0  0  0  0  0
   70.7573   58.8452   16.1088 C   0  0  2  0  0  0  0  0  0  0  0  0
   74.8310   59.8337   18.7532 C   0  0  1  0  0  0  0  0  0  0  0  0
   74.4465   62.1471   18.6198 C   0  0  1  0  0  0  0  0  0  0  0  0
   72.2391   62.2819   18.3019 C   0  0  0  0  0  0  0  0  0  0  0  0
   70.0487   60.1078   16.4876 C   0  0  0  0  0  0  0  0  0  0  0  0
   69.6688   60.2007   17.9270 C   0  0  0  0  0  0  0  0  0  0  0  0
   68.6823   61.2622   18.2832 C   0  0  0  0  0  0  0  0  0  0  0  0
   67.6499   60.7616   19.3177 C   0  0  0  0  0  0  0  0  0  0  0  0
   68.4404   60.1651   20.4378 C   0  0  0  0  0  0  0  0  0  0  0  0
   69.1015   58.8927   19.9489 C   0  0  0  0  0  0  0  0  0  0  0  0
   69.1376   58.8652   18.4547 C   0  0  0  0  0  0  0  0  0  0  0  0
   65.5515   51.4648   12.3912 C   0  0  0  0  0  0  0  0  0  0  0  0
   66.9785   51.7740   11.9440 C   0  0  1  0  0  0  0  0  0  0  0  0
   70.9885   56.2165   15.1252 N   0  0  0  0  0  0  0  0  0  0  0  0
   72.1881   58.8545   16.3046 N   0  0  0  0  0  0  0  0  0  0  0  0
   68.5280   57.2172   15.2520 O   0  0  0  0  0  0  0  0  0  0  0  0
   69.1563   55.6360   16.9684 O   0  0  0  0  0  0  0  0  0  0  0  0
   69.1081   58.0420   14.5513 O   0  0  0  0  0  0  0  0  0  0  0  0
   72.1190   59.2667   18.5675 O   0  0  0  0  0  0  0  0  0  0  0  0
   74.1740   59.2398   17.6932 O   0  0  0  0  0  0  0  0  0  0  0  0
   75.5321   61.7890   17.8718 O   0  0  0  0  0  0  0  0  0  0  0  0
   73.4528   62.6682   17.7654 O   0  0  0  0  0  0  0  0  0  0  0  0
   66.9452   52.2501   10.6335 O   0  0  0  0  0  0  0  0  0  0  0  0
   69.3600   55.9802   15.5024 S   0  0  1  0  0  6  0  0  0  0  0  0
 14  1  1  1
  2 16  1  0
 30  2  1  0
 31  3  1  0
  3 35  2  0
  3 36  1  0
 18  4  1  0
  4 37  1  0
  5  6  1  6
 18  5  1  0
  5 19  1  0
  6 20  1  0
  8  7  2  0
 12  7  1  0
  7 29  1  0
  9  8  1  0
 10  9  2  0
 10 11  1  0
 40 10  1  0
 11 12  2  0
 13 14  1  0
 30 13  1  0
 14 15  1  0
 16 17  1  0
 16 34  1  1
 17 21  1  6
 17 31  1  0
 18 36  1  6
 19 37  1  6
 19 38  1  0
 38 20  1  0
 21 22  1  0
 22 23  1  0
 22 27  1  0
 23 24  1  0
 24 25  1  0
 26 25  1  0
 27 26  1  0
 29 28  1  1
 29 39  1  0
 40 30  1  1
 40 32  2  0
 40 33  2  0
M  END
$$$$
