
     RDKit          3D

 40 43  0  0  0  0  0  0  0  0999 V2000
   73.1200   54.7008   15.4796 C   0  0  0  0  0  0  0  0  0  0  0  0
   70.1164   57.2490   14.4967 C   0  0  0  0  0  0  0  0  0  0  0  0
   72.6715   59.2875   17.9799 C   0  0  0  0  0  0  0  0  0  0  0  0
   75.8746   60.8365   19.0827 C   0  0  0  0  0  0  0  0  0  0  0  0
   73.7676   60.8624   20.0333 C   0  0  1  0  0  0  0  0  0  0  0  0
   72.3810   60.9289   19.4324 C   0  0  0  0  0  0  0  0  0  0  0  0
   66.9507   52.2244   13.1472 C   0  0  0  0  0  0  0  0  0  0  0  0
   66.6001   53.5485   13.1953 C   0  0  0  0  0  0  0  0  0  0  0  0
   67.2799   54.4781   13.9770 C   0  0  0  0  0  0  0  0  0  0  0  0
   68.3314   54.0596   14.7217 C   0  0  0  0  0  0  0  0  0  0  0  0
   68.7118   52.7063   14.6899 C   0  0  0  0  0  0  0  0  0  0  0  0
   68.0319   51.8244   13.9204 C   0  0  0  0  0  0  0  0  0  0  0  0
   71.2487   55.1407   14.0171 C   0  0  0  0  0  0  0  0  0  0  0  0
   72.7185   55.1752   14.0605 C   0  0  2  0  0  0  0  0  0  0  0  0
   73.4184   54.2747   13.0877 C   0  0  0  0  0  0  0  0  0  0  0  0
   71.1883   58.1039   15.1469 C   0  0  2  0  0  0  0  0  0  0  0  0
   70.7657   58.8178   16.4124 C   0  0  2  0  0  0  0  0  0  0  0  0
   74.6950   59.9588   19.2245 C   0  0  1  0  0  0  0  0  0  0  0  0
   74.3145   62.2225   19.7232 C   0  0  1  0  0  0  0  0  0  0  0  0
   72.0995   62.4275   19.5143 C   0  0  0  0  0  0  0  0  0  0  0  0
   69.4576   59.5234   16.2369 C   0  0  0  0  0  0  0  0  0  0  0  0
   68.7099   59.7724   17.5033 C   0  0  0  0  0  0  0  0  0  0  0  0
   68.5567   58.6056   18.4209 C   0  0  0  0  0  0  0  0  0  0  0  0
   68.7428   59.0111   19.9000 C   0  0  0  0  0  0  0  0  0  0  0  0
   67.8366   60.1782   20.1276 C   0  0  0  0  0  0  0  0  0  0  0  0
   68.3700   61.3709   19.3608 C   0  0  0  0  0  0  0  0  0  0  0  0
   69.3261   60.9242   18.3019 C   0  0  0  0  0  0  0  0  0  0  0  0
   66.3864   51.6100   10.8400 C   0  0  0  0  0  0  0  0  0  0  0  0
   66.2234   51.2398   12.3125 C   0  0  1  0  0  0  0  0  0  0  0  0
   70.4740   55.9001   14.9066 N   0  0  0  0  0  0  0  0  0  0  0  0
   71.8554   59.6400   16.8837 N   0  0  0  0  0  0  0  0  0  0  0  0
   68.3482   56.0055   16.5009 O   0  0  0  0  0  0  0  0  0  0  0  0
   69.8822   54.1692   16.8419 O   0  0  0  0  0  0  0  0  0  0  0  0
   71.5691   59.0219   14.1533 O   0  0  0  0  0  0  0  0  0  0  0  0
   72.2244   58.6239   18.9151 O   0  0  0  0  0  0  0  0  0  0  0  0
   74.0067   59.6660   18.0632 O   0  0  0  0  0  0  0  0  0  0  0  0
   75.3776   62.0814   18.8769 O   0  0  0  0  0  0  0  0  0  0  0  0
   73.2989   62.9480   19.0666 O   0  0  0  0  0  0  0  0  0  0  0  0
   66.7201   49.9514   12.5092 O   0  0  0  0  0  0  0  0  0  0  0  0
   69.2862   55.0699   15.7729 S   0  0  1  0  0  6  0  0  0  0  0  0
 14  1  1  1
  2 16  1  0
 30  2  1  0
 31  3  1  0
  3 35  2  0
  3 36  1  0
 18  4  1  0
  4 37  1  0
  5  6  1  6
 18  5  1  0
  5 19  1  0
  6 20  1  0
  8  7  2  0
 12  7  1  0
  7 29  1  0
  9  8  1  0
 10  9  2  0
 10 11  1  0
 40 10  1  0
 11 12  2  0
 13 14  1  0
 30 13  1  0
 14 15  1  0
 16 17  1  0
 16 34  1  6
 17 21  1  6
 17 31  1  0
 18 36  1  6
 19 37  1  6
 19 38  1  0
 38 20  1  0
 21 22  1  0
 22 23  1  0
 22 27  1  0
 23 24  1  0
 24 25  1  0
 26 25  1  0
 27 26  1  0
 29 28  1  6
 29 39  1  0
 40 30  1  6
 40 32  2  0
 40 33  2  0
M  END
$$$$
