
     RDKit          3D

 40 43  0  0  0  0  0  0  0  0999 V2000
   72.8767   54.7385   12.6264 C   0  0  0  0  0  0  0  0  0  0  0  0
   72.1250   57.0247   15.4480 C   0  0  0  0  0  0  0  0  0  0  0  0
   72.6563   58.8910   17.5046 C   0  0  0  0  0  0  0  0  0  0  0  0
   75.6506   60.6148   18.9793 C   0  0  0  0  0  0  0  0  0  0  0  0
   73.5649   60.4874   19.9681 C   0  0  1  0  0  0  0  0  0  0  0  0
   72.1687   60.7098   19.4303 C   0  0  0  0  0  0  0  0  0  0  0  0
   69.0984   51.1473   13.9435 C   0  0  0  0  0  0  0  0  0  0  0  0
   70.3185   51.0955   14.5658 C   0  0  0  0  0  0  0  0  0  0  0  0
   70.8749   52.1900   15.2213 C   0  0  0  0  0  0  0  0  0  0  0  0
   70.1844   53.3553   15.2468 C   0  0  0  0  0  0  0  0  0  0  0  0
   68.9301   53.4348   14.6162 C   0  0  0  0  0  0  0  0  0  0  0  0
   68.4137   52.3540   13.9860 C   0  0  0  0  0  0  0  0  0  0  0  0
   70.9948   55.8955   13.6030 C   0  0  0  0  0  0  0  0  0  0  0  0
   71.8496   55.8771   12.4062 C   0  0  2  0  0  0  0  0  0  0  0  0
   71.1502   55.5864   11.1126 C   0  0  0  0  0  0  0  0  0  0  0  0
   71.0582   58.0727   15.1902 C   0  0  2  0  0  0  0  0  0  0  0  0
   70.4004   58.6427   16.4279 C   0  0  2  0  0  0  0  0  0  0  0  0
   74.4506   59.7536   18.9642 C   0  0  1  0  0  0  0  0  0  0  0  0
   74.1423   61.8697   19.9361 C   0  0  1  0  0  0  0  0  0  0  0  0
   71.9299   62.1637   19.8319 C   0  0  0  0  0  0  0  0  0  0  0  0
   69.1422   59.3810   16.0934 C   0  0  0  0  0  0  0  0  0  0  0  0
   68.3540   59.8352   17.2754 C   0  0  0  0  0  0  0  0  0  0  0  0
   68.1536   58.8318   18.3615 C   0  0  0  0  0  0  0  0  0  0  0  0
   68.2932   59.4678   19.7625 C   0  0  0  0  0  0  0  0  0  0  0  0
   67.3948   60.6628   19.7672 C   0  0  0  0  0  0  0  0  0  0  0  0
   67.9702   61.7132   18.8396 C   0  0  0  0  0  0  0  0  0  0  0  0
   68.9568   61.0956   17.9015 C   0  0  0  0  0  0  0  0  0  0  0  0
   67.2388   49.5472   13.9740 C   0  0  0  0  0  0  0  0  0  0  0  0
   68.5111   49.9783   13.2479 C   0  0  1  0  0  0  0  0  0  0  0  0
   71.5416   55.8138   14.8922 N   0  0  0  0  0  0  0  0  0  0  0  0
   71.3756   59.3913   17.1856 N   0  0  0  0  0  0  0  0  0  0  0  0
   69.5238   55.5201   16.5993 O   0  0  0  0  0  0  0  0  0  0  0  0
   71.6086   54.4399   17.1723 O   0  0  0  0  0  0  0  0  0  0  0  0
   70.1156   57.4326   14.3675 O   0  0  0  0  0  0  0  0  0  0  0  0
   72.8707   57.6798   17.5470 O   0  0  0  0  0  0  0  0  0  0  0  0
   73.7310   59.7271   17.7854 O   0  0  0  0  0  0  0  0  0  0  0  0
   75.1836   61.8859   19.0521 O   0  0  0  0  0  0  0  0  0  0  0  0
   73.1337   62.7397   19.4727 O   0  0  0  0  0  0  0  0  0  0  0  0
   68.1904   50.2900   11.9268 O   0  0  0  0  0  0  0  0  0  0  0  0
   70.7275   54.8313   15.9978 S   0  0  1  0  0  6  0  0  0  0  0  0
 14  1  1  1
  2 16  1  0
 30  2  1  0
 31  3  1  0
  3 35  2  0
  3 36  1  0
 18  4  1  0
  4 37  1  0
  5  6  1  6
 18  5  1  0
  5 19  1  0
  6 20  1  0
  8  7  2  0
 12  7  1  0
  7 29  1  0
  9  8  1  0
 10  9  2  0
 10 11  1  0
 40 10  1  0
 11 12  2  0
 13 14  1  0
 30 13  1  0
 14 15  1  0
 16 17  1  0
 16 34  1  6
 17 21  1  6
 17 31  1  0
 18 36  1  6
 19 37  1  6
 19 38  1  0
 38 20  1  0
 21 22  1  0
 22 23  1  0
 22 27  1  0
 23 24  1  0
 24 25  1  0
 26 25  1  0
 27 26  1  0
 29 28  1  1
 29 39  1  0
 40 30  1  6
 40 32  2  0
 40 33  2  0
M  END
$$$$
