
     RDKit          3D

 40 43  0  0  0  0  0  0  0  0999 V2000
   73.6498   53.2775   13.6727 C   0  0  0  0  0  0  0  0  0  0  0  0
   71.8207   55.6479   16.6139 C   0  0  0  0  0  0  0  0  0  0  0  0
   71.5962   59.2053   18.9605 C   0  0  0  0  0  0  0  0  0  0  0  0
   71.9014   61.1953   21.1563 C   0  0  0  0  0  0  0  0  0  0  0  0
   69.6956   60.5655   20.8701 C   0  0  1  0  0  0  0  0  0  0  0  0
   69.0024   59.7418   19.8075 C   0  0  0  0  0  0  0  0  0  0  0  0
   67.1972   52.5136   12.7184 C   0  0  0  0  0  0  0  0  0  0  0  0
   67.3508   52.2664   14.0577 C   0  0  0  0  0  0  0  0  0  0  0  0
   68.0515   53.1207   14.9041 C   0  0  0  0  0  0  0  0  0  0  0  0
   68.6052   54.2431   14.3856 C   0  0  0  0  0  0  0  0  0  0  0  0
   68.4619   54.5202   13.0145 C   0  0  0  0  0  0  0  0  0  0  0  0
   67.7750   53.6709   12.2150 C   0  0  0  0  0  0  0  0  0  0  0  0
   71.6680   53.9243   14.8927 C   0  0  0  0  0  0  0  0  0  0  0  0
   72.6769   54.4485   13.9595 C   0  0  2  0  0  0  0  0  0  0  0  0
   72.1556   54.9142   12.6335 C   0  0  0  0  0  0  0  0  0  0  0  0
   71.6870   56.9887   15.9160 C   0  0  2  0  0  0  0  0  0  0  0  0
   72.1305   58.1864   16.7275 C   0  0  2  0  0  0  0  0  0  0  0  0
   71.0584   59.9852   21.2401 C   0  0  1  0  0  0  0  0  0  0  0  0
   70.0811   61.8005   20.1145 C   0  0  1  0  0  0  0  0  0  0  0  0
   68.4879   60.8388   18.8780 C   0  0  0  0  0  0  0  0  0  0  0  0
   73.6220   58.2693   16.8183 C   0  0  0  0  0  0  0  0  0  0  0  0
   74.1364   59.4760   17.5284 C   0  0  0  0  0  0  0  0  0  0  0  0
   73.5667   60.7874   17.1011 C   0  0  0  0  0  0  0  0  0  0  0  0
   73.2948   61.7144   18.3066 C   0  0  0  0  0  0  0  0  0  0  0  0
   74.5631   61.7498   19.0975 C   0  0  0  0  0  0  0  0  0  0  0  0
   74.7831   60.3925   19.7334 C   0  0  0  0  0  0  0  0  0  0  0  0
   73.9577   59.3542   19.0440 C   0  0  0  0  0  0  0  0  0  0  0  0
   67.1211   50.2290   11.8272 C   0  0  0  0  0  0  0  0  0  0  0  0
   66.4494   51.6004   11.8226 C   0  0  1  0  0  0  0  0  0  0  0  0
   71.0027   54.7656   15.7967 N   0  0  0  0  0  0  0  0  0  0  0  0
   71.4312   58.1929   17.9910 N   0  0  0  0  0  0  0  0  0  0  0  0
   69.7182   56.6333   14.4061 O   0  0  0  0  0  0  0  0  0  0  0  0
   68.6701   55.8735   16.4471 O   0  0  0  0  0  0  0  0  0  0  0  0
   70.3263   57.0848   15.5777 O   0  0  0  0  0  0  0  0  0  0  0  0
   72.0081   60.3218   18.6467 O   0  0  0  0  0  0  0  0  0  0  0  0
   71.3076   58.9997   20.3049 O   0  0  0  0  0  0  0  0  0  0  0  0
   71.4444   61.8816   20.0797 O   0  0  0  0  0  0  0  0  0  0  0  0
   69.5964   61.6602   18.7975 O   0  0  0  0  0  0  0  0  0  0  0  0
   65.1281   51.4547   12.2447 O   0  0  0  0  0  0  0  0  0  0  0  0
   69.5319   55.4156   15.2823 S   0  0  1  0  0  6  0  0  0  0  0  0
 14  1  1  6
  2 16  1  0
 30  2  1  0
 31  3  1  0
  3 35  2  0
  3 36  1  0
 18  4  1  0
  4 37  1  0
  5  6  1  6
 18  5  1  0
  5 19  1  0
  6 20  1  0
  8  7  2  0
 12  7  1  0
  7 29  1  0
  9  8  1  0
 10  9  2  0
 10 11  1  0
 40 10  1  0
 11 12  2  0
 13 14  1  0
 30 13  1  0
 14 15  1  0
 16 17  1  0
 16 34  1  1
 17 21  1  1
 17 31  1  0
 18 36  1  6
 19 37  1  6
 19 38  1  0
 38 20  1  0
 21 22  1  0
 22 23  1  0
 22 27  1  0
 23 24  1  0
 24 25  1  0
 26 25  1  0
 27 26  1  0
 29 28  1  1
 29 39  1  0
 40 30  1  1
 40 32  2  0
 40 33  2  0
M  END
$$$$
