
     RDKit          3D

 40 43  0  0  0  0  0  0  0  0999 V2000
   73.9876   54.2656   14.8697 C   0  0  0  0  0  0  0  0  0  0  0  0
   70.4332   56.8238   13.8801 C   0  0  0  0  0  0  0  0  0  0  0  0
   72.4689   58.5333   17.8352 C   0  0  0  0  0  0  0  0  0  0  0  0
   75.6515   60.2328   18.7452 C   0  0  0  0  0  0  0  0  0  0  0  0
   73.7933   60.4290   20.1064 C   0  0  1  0  0  0  0  0  0  0  0  0
   72.3504   60.7767   19.8145 C   0  0  0  0  0  0  0  0  0  0  0  0
   67.0833   52.3432   12.9630 C   0  0  0  0  0  0  0  0  0  0  0  0
   66.9903   53.6858   12.7035 C   0  0  0  0  0  0  0  0  0  0  0  0
   67.6161   54.6484   13.4904 C   0  0  0  0  0  0  0  0  0  0  0  0
   68.3475   54.2445   14.5568 C   0  0  0  0  0  0  0  0  0  0  0  0
   68.4591   52.8726   14.8445 C   0  0  0  0  0  0  0  0  0  0  0  0
   67.8393   51.9587   14.0617 C   0  0  0  0  0  0  0  0  0  0  0  0
   71.6854   54.9955   14.9029 C   0  0  0  0  0  0  0  0  0  0  0  0
   73.0422   55.4557   14.5702 C   0  0  2  0  0  0  0  0  0  0  0  0
   73.2657   55.8376   13.1380 C   0  0  0  0  0  0  0  0  0  0  0  0
   70.9777   58.1261   14.4371 C   0  0  2  0  0  0  0  0  0  0  0  0
   70.8436   58.2942   15.9349 C   0  0  2  0  0  0  0  0  0  0  0  0
   74.3883   59.5226   19.0316 C   0  0  1  0  0  0  0  0  0  0  0  0
   74.4938   61.7261   19.8384 C   0  0  1  0  0  0  0  0  0  0  0  0
   72.3453   62.2742   20.1133 C   0  0  0  0  0  0  0  0  0  0  0  0
   70.2060   59.6013   16.2882 C   0  0  0  0  0  0  0  0  0  0  0  0
   69.2541   59.5398   17.4349 C   0  0  0  0  0  0  0  0  0  0  0  0
   69.6364   58.6420   18.5639 C   0  0  0  0  0  0  0  0  0  0  0  0
   69.3197   59.2788   19.9353 C   0  0  0  0  0  0  0  0  0  0  0  0
   67.8920   59.7176   19.8695 C   0  0  0  0  0  0  0  0  0  0  0  0
   67.7792   60.8783   18.9025 C   0  0  0  0  0  0  0  0  0  0  0  0
   68.9774   60.9314   18.0102 C   0  0  0  0  0  0  0  0  0  0  0  0
   67.3696   50.8800   11.0145 C   0  0  0  0  0  0  0  0  0  0  0  0
   66.4152   51.3233   12.1210 C   0  0  1  0  0  0  0  0  0  0  0  0
   70.6094   55.8920   14.9829 N   0  0  0  0  0  0  0  0  0  0  0  0
   72.1196   58.0377   16.5607 N   0  0  0  0  0  0  0  0  0  0  0  0
   68.2326   56.4091   16.0578 O   0  0  0  0  0  0  0  0  0  0  0  0
   69.4397   54.5073   16.9338 O   0  0  0  0  0  0  0  0  0  0  0  0
   70.2759   59.1325   13.7519 O   0  0  0  0  0  0  0  0  0  0  0  0
   71.9036   58.1264   18.8499 O   0  0  0  0  0  0  0  0  0  0  0  0
   73.4565   59.4957   18.0122 O   0  0  0  0  0  0  0  0  0  0  0  0
   75.3415   61.5525   18.7813 O   0  0  0  0  0  0  0  0  0  0  0  0
   73.5106   62.6741   19.4869 O   0  0  0  0  0  0  0  0  0  0  0  0
   66.0544   50.2077   12.8764 O   0  0  0  0  0  0  0  0  0  0  0  0
   69.1820   55.3008   15.6637 S   0  0  1  0  0  6  0  0  0  0  0  0
 14  1  1  6
  2 16  1  0
 30  2  1  0
 31  3  1  0
  3 35  2  0
  3 36  1  0
 18  4  1  0
  4 37  1  0
  5  6  1  6
 18  5  1  0
  5 19  1  0
  6 20  1  0
  8  7  2  0
 12  7  1  0
  7 29  1  0
  9  8  1  0
 10  9  2  0
 10 11  1  0
 40 10  1  0
 11 12  2  0
 13 14  1  0
 30 13  1  0
 14 15  1  0
 16 17  1  0
 16 34  1  6
 17 21  1  6
 17 31  1  0
 18 36  1  6
 19 37  1  6
 19 38  1  0
 38 20  1  0
 21 22  1  0
 22 23  1  0
 22 27  1  0
 23 24  1  0
 24 25  1  0
 26 25  1  0
 27 26  1  0
 29 28  1  6
 29 39  1  0
 40 30  1  6
 40 32  2  0
 40 33  2  0
M  END
$$$$
