
     RDKit          3D

 40 43  0  0  0  0  0  0  0  0999 V2000
   72.9629   55.2169   16.0310 C   0  0  0  0  0  0  0  0  0  0  0  0
   70.4435   57.6016   14.1182 C   0  0  0  0  0  0  0  0  0  0  0  0
   72.9084   58.9473   17.5310 C   0  0  0  0  0  0  0  0  0  0  0  0
   76.1663   60.4766   18.5912 C   0  0  0  0  0  0  0  0  0  0  0  0
   74.1620   60.7983   19.6972 C   0  0  1  0  0  0  0  0  0  0  0  0
   72.7731   61.1428   19.2068 C   0  0  0  0  0  0  0  0  0  0  0  0
   67.1065   52.6908   13.2131 C   0  0  0  0  0  0  0  0  0  0  0  0
   67.1029   54.0224   12.8888 C   0  0  0  0  0  0  0  0  0  0  0  0
   67.8463   54.9684   13.5887 C   0  0  0  0  0  0  0  0  0  0  0  0
   68.6052   54.5588   14.6336 C   0  0  0  0  0  0  0  0  0  0  0  0
   68.6266   53.1979   14.9867 C   0  0  0  0  0  0  0  0  0  0  0  0
   67.8932   52.3001   14.2879 C   0  0  0  0  0  0  0  0  0  0  0  0
   71.6570   55.4864   14.0170 C   0  0  0  0  0  0  0  0  0  0  0  0
   73.0211   55.1944   14.4831 C   0  0  2  0  0  0  0  0  0  0  0  0
   73.5698   53.8562   14.0889 C   0  0  0  0  0  0  0  0  0  0  0  0
   71.1876   58.6236   14.9577 C   0  0  2  0  0  0  0  0  0  0  0  0
   70.6840   58.7850   16.3754 C   0  0  2  0  0  0  0  0  0  0  0  0
   74.8621   59.8067   18.7714 C   0  0  1  0  0  0  0  0  0  0  0  0
   74.9187   62.0623   19.4243 C   0  0  1  0  0  0  0  0  0  0  0  0
   72.7656   62.6583   19.3941 C   0  0  0  0  0  0  0  0  0  0  0  0
   69.2999   59.3534   16.4075 C   0  0  0  0  0  0  0  0  0  0  0  0
   68.9315   60.0230   17.6885 C   0  0  0  0  0  0  0  0  0  0  0  0
   67.6339   60.7598   17.7000 C   0  0  0  0  0  0  0  0  0  0  0  0
   66.8652   60.5464   19.0229 C   0  0  0  0  0  0  0  0  0  0  0  0
   67.8325   60.8566   20.1199 C   0  0  0  0  0  0  0  0  0  0  0  0
   68.9008   59.7829   20.1506 C   0  0  0  0  0  0  0  0  0  0  0  0
   68.9240   59.0339   18.8571 C   0  0  0  0  0  0  0  0  0  0  0  0
   67.1171   51.2110   11.2561 C   0  0  0  0  0  0  0  0  0  0  0  0
   66.3134   51.6885   12.4636 C   0  0  1  0  0  0  0  0  0  0  0  0
   70.8054   56.3366   14.7380 N   0  0  0  0  0  0  0  0  0  0  0  0
   71.6670   59.5023   17.1529 N   0  0  0  0  0  0  0  0  0  0  0  0
   68.6682   56.6026   16.2982 O   0  0  0  0  0  0  0  0  0  0  0  0
   70.1374   54.7404   16.7623 O   0  0  0  0  0  0  0  0  0  0  0  0
   71.0752   59.8280   14.2424 O   0  0  0  0  0  0  0  0  0  0  0  0
   73.0176   57.7455   17.7729 O   0  0  0  0  0  0  0  0  0  0  0  0
   74.0601   59.7169   17.6503 O   0  0  0  0  0  0  0  0  0  0  0  0
   75.8839   61.7994   18.4940 O   0  0  0  0  0  0  0  0  0  0  0  0
   74.0067   62.9948   18.8878 O   0  0  0  0  0  0  0  0  0  0  0  0
   66.0102   50.5879   13.2649 O   0  0  0  0  0  0  0  0  0  0  0  0
   69.5822   55.5967   15.6364 S   0  0  1  0  0  6  0  0  0  0  0  0
 14  1  1  1
  2 16  1  0
 30  2  1  0
 31  3  1  0
  3 35  2  0
  3 36  1  0
 18  4  1  0
  4 37  1  0
  5  6  1  6
 18  5  1  0
  5 19  1  0
  6 20  1  0
  8  7  2  0
 12  7  1  0
  7 29  1  0
  9  8  1  0
 10  9  2  0
 10 11  1  0
 40 10  1  0
 11 12  2  0
 13 14  1  0
 30 13  1  0
 14 15  1  0
 16 17  1  0
 16 34  1  6
 17 21  1  6
 17 31  1  0
 18 36  1  6
 19 37  1  6
 19 38  1  0
 38 20  1  0
 21 22  1  0
 22 23  1  0
 22 27  1  0
 23 24  1  0
 24 25  1  0
 26 25  1  0
 27 26  1  0
 29 28  1  6
 29 39  1  0
 40 30  1  6
 40 32  2  0
 40 33  2  0
M  END
$$$$
