
     RDKit          3D

 40 43  0  0  0  0  0  0  0  0999 V2000
   73.4022   55.4020   14.5918 C   0  0  0  0  0  0  0  0  0  0  0  0
   71.5638   56.2099   15.8372 C   0  0  0  0  0  0  0  0  0  0  0  0
   72.7835   59.2936   17.9691 C   0  0  0  0  0  0  0  0  0  0  0  0
   75.9487   61.1751   18.7077 C   0  0  0  0  0  0  0  0  0  0  0  0
   74.0271   61.0323   19.9848 C   0  0  1  0  0  0  0  0  0  0  0  0
   72.5591   61.0836   19.6235 C   0  0  0  0  0  0  0  0  0  0  0  0
   67.0712   52.1740   12.7832 C   0  0  0  0  0  0  0  0  0  0  0  0
   66.9104   53.4915   12.4414 C   0  0  0  0  0  0  0  0  0  0  0  0
   67.5146   54.5296   13.1447 C   0  0  0  0  0  0  0  0  0  0  0  0
   68.2939   54.2282   14.2110 C   0  0  0  0  0  0  0  0  0  0  0  0
   68.4755   52.8842   14.5824 C   0  0  0  0  0  0  0  0  0  0  0  0
   67.8752   51.8952   13.8799 C   0  0  0  0  0  0  0  0  0  0  0  0
   71.1968   55.2674   13.6160 C   0  0  0  0  0  0  0  0  0  0  0  0
   72.6235   55.2746   13.2586 C   0  0  2  0  0  0  0  0  0  0  0  0
   73.1288   54.0386   12.5774 C   0  0  0  0  0  0  0  0  0  0  0  0
   71.0144   57.5987   15.5690 C   0  0  2  0  0  0  0  0  0  0  0  0
   70.7336   58.4314   16.8009 C   0  0  2  0  0  0  0  0  0  0  0  0
   74.8366   60.2371   18.9634 C   0  0  1  0  0  0  0  0  0  0  0  0
   74.4727   62.4355   19.7065 C   0  0  1  0  0  0  0  0  0  0  0  0
   72.2482   62.5572   19.8761 C   0  0  0  0  0  0  0  0  0  0  0  0
   69.3450   58.9894   16.7847 C   0  0  0  0  0  0  0  0  0  0  0  0
   68.8987   59.5858   18.0769 C   0  0  0  0  0  0  0  0  0  0  0  0
   69.1130   61.0539   18.2364 C   0  0  0  0  0  0  0  0  0  0  0  0
   67.9112   61.7372   18.9258 C   0  0  0  0  0  0  0  0  0  0  0  0
   67.6434   60.9506   20.1687 C   0  0  0  0  0  0  0  0  0  0  0  0
   67.1055   59.5885   19.7813 C   0  0  0  0  0  0  0  0  0  0  0  0
   67.4215   59.2911   18.3508 C   0  0  0  0  0  0  0  0  0  0  0  0
   67.3396   49.8500   12.0442 C   0  0  0  0  0  0  0  0  0  0  0  0
   66.4258   51.0734   12.0300 C   0  0  1  0  0  0  0  0  0  0  0  0
   70.7780   55.3655   14.9512 N   0  0  0  0  0  0  0  0  0  0  0  0
   71.7896   59.4014   16.9727 N   0  0  0  0  0  0  0  0  0  0  0  0
   68.5070   56.7492   14.9536 O   0  0  0  0  0  0  0  0  0  0  0  0
   68.7603   55.0582   16.6617 O   0  0  0  0  0  0  0  0  0  0  0  0
   69.8404   57.3847   14.8267 O   0  0  0  0  0  0  0  0  0  0  0  0
   72.6279   58.5559   18.9418 O   0  0  0  0  0  0  0  0  0  0  0  0
   73.9760   60.0057   17.9080 O   0  0  0  0  0  0  0  0  0  0  0  0
   75.3859   62.4087   18.6909 O   0  0  0  0  0  0  0  0  0  0  0  0
   73.3407   63.1642   19.2863 O   0  0  0  0  0  0  0  0  0  0  0  0
   65.2015   50.7259   12.6005 O   0  0  0  0  0  0  0  0  0  0  0  0
   69.1116   55.3897   15.2209 S   0  0  1  0  0  6  0  0  0  0  0  0
 14  1  1  1
  2 16  1  0
 30  2  1  0
 31  3  1  0
  3 35  2  0
  3 36  1  0
 18  4  1  0
  4 37  1  0
  5  6  1  6
 18  5  1  0
  5 19  1  0
  6 20  1  0
  8  7  2  0
 12  7  1  0
  7 29  1  0
  9  8  1  0
 10  9  2  0
 10 11  1  0
 40 10  1  0
 11 12  2  0
 13 14  1  0
 30 13  1  0
 14 15  1  0
 16 17  1  0
 16 34  1  1
 17 21  1  6
 17 31  1  0
 18 36  1  6
 19 37  1  6
 19 38  1  0
 38 20  1  0
 21 22  1  0
 22 23  1  0
 22 27  1  0
 23 24  1  0
 24 25  1  0
 26 25  1  0
 27 26  1  0
 29 28  1  1
 29 39  1  0
 40 30  1  1
 40 32  2  0
 40 33  2  0
M  END
$$$$
