
     RDKit          3D

 40 43  0  0  0  0  0  0  0  0999 V2000
   73.0880   54.0715   14.8513 C   0  0  0  0  0  0  0  0  0  0  0  0
   71.1201   55.9042   16.2409 C   0  0  0  0  0  0  0  0  0  0  0  0
   73.2731   59.5517   17.9005 C   0  0  0  0  0  0  0  0  0  0  0  0
   76.1755   60.5270   18.6364 C   0  0  0  0  0  0  0  0  0  0  0  0
   74.4113   60.9040   20.0819 C   0  0  1  0  0  0  0  0  0  0  0  0
   72.9176   60.7148   19.9355 C   0  0  0  0  0  0  0  0  0  0  0  0
   67.5371   51.6830   12.3436 C   0  0  0  0  0  0  0  0  0  0  0  0
   68.2505   51.3980   13.4787 C   0  0  0  0  0  0  0  0  0  0  0  0
   68.6984   52.3846   14.3524 C   0  0  0  0  0  0  0  0  0  0  0  0
   68.4191   53.6802   14.0718 C   0  0  0  0  0  0  0  0  0  0  0  0
   67.6883   53.9995   12.9137 C   0  0  0  0  0  0  0  0  0  0  0  0
   67.2656   53.0189   12.0818 C   0  0  0  0  0  0  0  0  0  0  0  0
   71.2634   55.3180   13.8761 C   0  0  0  0  0  0  0  0  0  0  0  0
   72.7159   55.1137   13.7672 C   0  0  2  0  0  0  0  0  0  0  0  0
   73.1989   54.5684   12.4571 C   0  0  0  0  0  0  0  0  0  0  0  0
   71.1300   57.3410   15.7527 C   0  0  2  0  0  0  0  0  0  0  0  0
   71.3223   58.3875   16.8286 C   0  0  2  0  0  0  0  0  0  0  0  0
   75.1948   59.7643   19.4354 C   0  0  1  0  0  0  0  0  0  0  0  0
   74.6824   62.0376   19.1404 C   0  0  1  0  0  0  0  0  0  0  0  0
   72.4840   62.1218   19.5305 C   0  0  0  0  0  0  0  0  0  0  0  0
   70.3167   59.4897   16.7118 C   0  0  0  0  0  0  0  0  0  0  0  0
   69.3169   59.5399   17.8176 C   0  0  0  0  0  0  0  0  0  0  0  0
   69.7838   59.0645   19.1529 C   0  0  0  0  0  0  0  0  0  0  0  0
   69.2582   59.9606   20.2964 C   0  0  0  0  0  0  0  0  0  0  0  0
   67.7812   60.0703   20.0924 C   0  0  0  0  0  0  0  0  0  0  0  0
   67.5173   60.8903   18.8463 C   0  0  0  0  0  0  0  0  0  0  0  0
   68.7423   60.9483   17.9915 C   0  0  0  0  0  0  0  0  0  0  0  0
   66.7082   49.3772   12.2188 C   0  0  0  0  0  0  0  0  0  0  0  0
   67.0626   50.6281   11.4178 C   0  0  1  0  0  0  0  0  0  0  0  0
   70.5950   55.1700   15.1005 N   0  0  0  0  0  0  0  0  0  0  0  0
   72.7038   58.8079   16.8447 N   0  0  0  0  0  0  0  0  0  0  0  0
   68.2703   56.2855   14.4495 O   0  0  0  0  0  0  0  0  0  0  0  0
   68.2959   54.8738   16.4111 O   0  0  0  0  0  0  0  0  0  0  0  0
   69.8963   57.5087   15.1009 O   0  0  0  0  0  0  0  0  0  0  0  0
   72.9084   60.7041   18.1321 O   0  0  0  0  0  0  0  0  0  0  0  0
   74.2641   59.0313   18.7251 O   0  0  0  0  0  0  0  0  0  0  0  0
   75.4908   61.5854   18.1363 O   0  0  0  0  0  0  0  0  0  0  0  0
   73.4466   62.4361   18.5899 O   0  0  0  0  0  0  0  0  0  0  0  0
   65.9322   51.0476   10.7167 O   0  0  0  0  0  0  0  0  0  0  0  0
   68.9124   55.0477   15.0332 S   0  0  1  0  0  6  0  0  0  0  0  0
 14  1  1  1
  2 16  1  0
 30  2  1  0
 31  3  1  0
  3 35  2  0
  3 36  1  0
 18  4  1  0
  4 37  1  0
  5  6  1  6
 18  5  1  0
  5 19  1  0
  6 20  1  0
  8  7  2  0
 12  7  1  0
  7 29  1  0
  9  8  1  0
 10  9  2  0
 10 11  1  0
 40 10  1  0
 11 12  2  0
 13 14  1  0
 30 13  1  0
 14 15  1  0
 16 17  1  0
 16 34  1  1
 17 21  1  6
 17 31  1  0
 18 36  1  6
 19 37  1  6
 19 38  1  0
 38 20  1  0
 21 22  1  0
 22 23  1  0
 22 27  1  0
 23 24  1  0
 24 25  1  0
 26 25  1  0
 27 26  1  0
 29 28  1  1
 29 39  1  0
 40 30  1  1
 40 32  2  0
 40 33  2  0
M  END
$$$$
