
     RDKit          3D

 40 43  0  0  0  0  0  0  0  0999 V2000
   73.6412   54.8970   14.1379 C   0  0  0  0  0  0  0  0  0  0  0  0
   71.8697   56.7287   15.1840 C   0  0  0  0  0  0  0  0  0  0  0  0
   72.5472   58.7962   17.6646 C   0  0  0  0  0  0  0  0  0  0  0  0
   75.6949   59.9748   19.2840 C   0  0  0  0  0  0  0  0  0  0  0  0
   73.6232   60.6746   20.0339 C   0  0  1  0  0  0  0  0  0  0  0  0
   72.4124   61.2240   19.3127 C   0  0  0  0  0  0  0  0  0  0  0  0
   67.2031   52.7127   12.3955 C   0  0  0  0  0  0  0  0  0  0  0  0
   67.1199   54.0696   12.2213 C   0  0  0  0  0  0  0  0  0  0  0  0
   67.8136   54.9739   13.0203 C   0  0  0  0  0  0  0  0  0  0  0  0
   68.6041   54.4958   14.0113 C   0  0  0  0  0  0  0  0  0  0  0  0
   68.7071   53.1077   14.2108 C   0  0  0  0  0  0  0  0  0  0  0  0
   68.0205   52.2518   13.4183 C   0  0  0  0  0  0  0  0  0  0  0  0
   71.4095   55.2612   13.2889 C   0  0  0  0  0  0  0  0  0  0  0  0
   72.7535   54.8353   12.8698 C   0  0  2  0  0  0  0  0  0  0  0  0
   72.8554   53.4381   12.3364 C   0  0  0  0  0  0  0  0  0  0  0  0
   70.9046   57.8889   15.0254 C   0  0  2  0  0  0  0  0  0  0  0  0
   70.4440   58.5273   16.3176 C   0  0  2  0  0  0  0  0  0  0  0  0
   74.2834   59.5403   19.2539 C   0  0  1  0  0  0  0  0  0  0  0  0
   74.6199   61.7815   19.8716 C   0  0  1  0  0  0  0  0  0  0  0  0
   72.6350   62.7263   19.4723 C   0  0  0  0  0  0  0  0  0  0  0  0
   69.1353   59.2334   16.1481 C   0  0  0  0  0  0  0  0  0  0  0  0
   68.4915   59.6655   17.4223 C   0  0  0  0  0  0  0  0  0  0  0  0
   68.5256   58.6842   18.5461 C   0  0  0  0  0  0  0  0  0  0  0  0
   68.8146   59.3718   19.8990 C   0  0  0  0  0  0  0  0  0  0  0  0
   67.8373   60.4978   20.0095 C   0  0  0  0  0  0  0  0  0  0  0  0
   68.1924   61.5580   18.9873 C   0  0  0  0  0  0  0  0  0  0  0  0
   69.0793   60.9852   17.9290 C   0  0  0  0  0  0  0  0  0  0  0  0
   67.3697   50.5734   11.2058 C   0  0  0  0  0  0  0  0  0  0  0  0
   66.4625   51.7552   11.5410 C   0  0  1  0  0  0  0  0  0  0  0  0
   71.1352   55.6069   14.6205 N   0  0  0  0  0  0  0  0  0  0  0  0
   71.5147   59.3285   16.8629 N   0  0  0  0  0  0  0  0  0  0  0  0
   68.8490   56.8165   15.2387 O   0  0  0  0  0  0  0  0  0  0  0  0
   69.4088   54.8274   16.4922 O   0  0  0  0  0  0  0  0  0  0  0  0
   69.8178   57.3584   14.3096 O   0  0  0  0  0  0  0  0  0  0  0  0
   72.4894   57.6421   18.0880 O   0  0  0  0  0  0  0  0  0  0  0  0
   73.6704   59.5363   18.0161 O   0  0  0  0  0  0  0  0  0  0  0  0
   75.6635   61.3206   19.1202 O   0  0  0  0  0  0  0  0  0  0  0  0
   73.9809   62.8285   19.1756 O   0  0  0  0  0  0  0  0  0  0  0  0
   65.3253   51.2777   12.1923 O   0  0  0  0  0  0  0  0  0  0  0  0
   69.5285   55.4713   15.1210 S   0  0  1  0  0  6  0  0  0  0  0  0
 14  1  1  1
  2 16  1  0
 30  2  1  0
 31  3  1  0
  3 35  2  0
  3 36  1  0
 18  4  1  0
  4 37  1  0
  5  6  1  6
 18  5  1  0
  5 19  1  0
  6 20  1  0
  8  7  2  0
 12  7  1  0
  7 29  1  0
  9  8  1  0
 10  9  2  0
 10 11  1  0
 40 10  1  0
 11 12  2  0
 13 14  1  0
 30 13  1  0
 14 15  1  0
 16 17  1  0
 16 34  1  1
 17 21  1  6
 17 31  1  0
 18 36  1  6
 19 37  1  6
 19 38  1  0
 38 20  1  0
 21 22  1  0
 22 23  1  0
 22 27  1  0
 23 24  1  0
 24 25  1  0
 26 25  1  0
 27 26  1  0
 29 28  1  1
 29 39  1  0
 40 30  1  6
 40 32  2  0
 40 33  2  0
M  END
$$$$
