
     RDKit          3D

 40 43  0  0  0  0  0  0  0  0999 V2000
   73.5167   55.0882   15.6267 C   0  0  0  0  0  0  0  0  0  0  0  0
   70.3226   57.0802   14.0174 C   0  0  0  0  0  0  0  0  0  0  0  0
   72.8909   58.6940   17.9193 C   0  0  0  0  0  0  0  0  0  0  0  0
   76.1003   60.0988   19.2759 C   0  0  0  0  0  0  0  0  0  0  0  0
   74.0566   60.1543   20.3549 C   0  0  1  0  0  0  0  0  0  0  0  0
   72.6660   60.5161   19.8823 C   0  0  0  0  0  0  0  0  0  0  0  0
   67.1759   52.3313   12.5819 C   0  0  0  0  0  0  0  0  0  0  0  0
   67.0171   53.6911   12.5178 C   0  0  0  0  0  0  0  0  0  0  0  0
   67.6965   54.5676   13.3589 C   0  0  0  0  0  0  0  0  0  0  0  0
   68.5502   54.0584   14.2794 C   0  0  0  0  0  0  0  0  0  0  0  0
   68.7314   52.6666   14.3656 C   0  0  0  0  0  0  0  0  0  0  0  0
   68.0569   51.8382   13.5344 C   0  0  0  0  0  0  0  0  0  0  0  0
   71.7024   55.0671   14.0324 C   0  0  0  0  0  0  0  0  0  0  0  0
   73.1304   55.3962   14.1585 C   0  0  2  0  0  0  0  0  0  0  0  0
   74.0592   54.6026   13.2897 C   0  0  0  0  0  0  0  0  0  0  0  0
   71.3061   58.0905   14.5783 C   0  0  2  0  0  0  0  0  0  0  0  0
   71.2313   58.3028   16.0746 C   0  0  2  0  0  0  0  0  0  0  0  0
   74.8242   59.3554   19.3045 C   0  0  1  0  0  0  0  0  0  0  0  0
   74.7611   61.4760   20.3128 C   0  0  1  0  0  0  0  0  0  0  0  0
   72.5844   61.9797   20.3103 C   0  0  0  0  0  0  0  0  0  0  0  0
   70.4778   59.5495   16.4178 C   0  0  0  0  0  0  0  0  0  0  0  0
   70.0819   59.6630   17.8514 C   0  0  0  0  0  0  0  0  0  0  0  0
   69.4290   60.9418   18.2577 C   0  0  0  0  0  0  0  0  0  0  0  0
   68.2547   60.7015   19.2324 C   0  0  0  0  0  0  0  0  0  0  0  0
   68.7934   59.8361   20.3261 C   0  0  0  0  0  0  0  0  0  0  0  0
   69.0798   58.4581   19.7657 C   0  0  0  0  0  0  0  0  0  0  0  0
   69.1676   58.5100   18.2743 C   0  0  0  0  0  0  0  0  0  0  0  0
   67.0566   50.0073   11.8046 C   0  0  0  0  0  0  0  0  0  0  0  0
   66.4502   51.4035   11.6831 C   0  0  1  0  0  0  0  0  0  0  0  0
   70.7166   55.8389   14.6650 N   0  0  0  0  0  0  0  0  0  0  0  0
   72.5574   58.2050   16.6379 N   0  0  0  0  0  0  0  0  0  0  0  0
   68.5130   55.9144   16.1519 O   0  0  0  0  0  0  0  0  0  0  0  0
   69.9902   54.0296   16.4789 O   0  0  0  0  0  0  0  0  0  0  0  0
   71.0328   59.2824   13.8857 O   0  0  0  0  0  0  0  0  0  0  0  0
   72.1525   58.4977   18.8842 O   0  0  0  0  0  0  0  0  0  0  0  0
   74.0551   59.4152   18.1587 O   0  0  0  0  0  0  0  0  0  0  0  0
   75.7601   61.4071   19.3836 O   0  0  0  0  0  0  0  0  0  0  0  0
   73.8209   62.4446   19.9044 O   0  0  0  0  0  0  0  0  0  0  0  0
   65.0979   51.3363   12.0177 O   0  0  0  0  0  0  0  0  0  0  0  0
   69.4689   54.9945   15.4271 S   0  0  1  0  0  6  0  0  0  0  0  0
 14  1  1  1
  2 16  1  0
 30  2  1  0
 31  3  1  0
  3 35  2  0
  3 36  1  0
 18  4  1  0
  4 37  1  0
  5  6  1  6
 18  5  1  0
  5 19  1  0
  6 20  1  0
  8  7  2  0
 12  7  1  0
  7 29  1  0
  9  8  1  0
 10  9  2  0
 10 11  1  0
 40 10  1  0
 11 12  2  0
 13 14  1  0
 30 13  1  0
 14 15  1  0
 16 17  1  0
 16 34  1  6
 17 21  1  6
 17 31  1  0
 18 36  1  6
 19 37  1  6
 19 38  1  0
 38 20  1  0
 21 22  1  0
 22 23  1  0
 22 27  1  0
 23 24  1  0
 24 25  1  0
 26 25  1  0
 27 26  1  0
 29 28  1  1
 29 39  1  0
 40 30  1  6
 40 32  2  0
 40 33  2  0
M  END
$$$$
