
     RDKit          3D

 40 43  0  0  0  0  0  0  0  0999 V2000
   67.0703   57.6219   14.1647 C   0  0  0  0  0  0  0  0  0  0  0  0
   71.2857   56.7493   14.9500 C   0  0  0  0  0  0  0  0  0  0  0  0
   71.6951   59.0042   18.9398 C   0  0  0  0  0  0  0  0  0  0  0  0
   74.6080   60.9771   20.2338 C   0  0  0  0  0  0  0  0  0  0  0  0
   72.3603   61.1697   20.7386 C   0  0  1  0  0  0  0  0  0  0  0  0
   71.1151   61.0924   19.8832 C   0  0  0  0  0  0  0  0  0  0  0  0
   68.8279   50.9470   13.2853 C   0  0  0  0  0  0  0  0  0  0  0  0
   70.0384   51.5085   12.9724 C   0  0  0  0  0  0  0  0  0  0  0  0
   70.5893   52.5603   13.6987 C   0  0  0  0  0  0  0  0  0  0  0  0
   69.9030   53.0511   14.7586 C   0  0  0  0  0  0  0  0  0  0  0  0
   68.6588   52.4925   15.1009 C   0  0  0  0  0  0  0  0  0  0  0  0
   68.1474   51.4700   14.3762 C   0  0  0  0  0  0  0  0  0  0  0  0
   68.8821   56.4449   15.2447 C   0  0  0  0  0  0  0  0  0  0  0  0
   68.5316   57.7496   14.6631 C   0  0  2  0  0  0  0  0  0  0  0  0
   68.5678   58.9128   15.6079 C   0  0  0  0  0  0  0  0  0  0  0  0
   70.7319   58.0703   15.4511 C   0  0  2  0  0  0  0  0  0  0  0  0
   71.6118   58.8073   16.4370 C   0  0  2  0  0  0  0  0  0  0  0  0
   73.4001   60.1315   20.3241 C   0  0  1  0  0  0  0  0  0  0  0  0
   72.9918   62.4440   20.2671 C   0  0  1  0  0  0  0  0  0  0  0  0
   70.8628   62.5719   19.6015 C   0  0  0  0  0  0  0  0  0  0  0  0
   73.0414   58.8248   15.9944 C   0  0  0  0  0  0  0  0  0  0  0  0
   73.9400   57.9097   16.7560 C   0  0  0  0  0  0  0  0  0  0  0  0
   73.5126   56.4824   16.8401 C   0  0  0  0  0  0  0  0  0  0  0  0
   74.7070   55.5159   16.6788 C   0  0  0  0  0  0  0  0  0  0  0  0
   75.7453   55.9729   17.6527 C   0  0  0  0  0  0  0  0  0  0  0  0
   76.2993   57.3050   17.1906 C   0  0  0  0  0  0  0  0  0  0  0  0
   75.3697   57.9437   16.2094 C   0  0  0  0  0  0  0  0  0  0  0  0
   66.7877   50.1407   12.1868 C   0  0  0  0  0  0  0  0  0  0  0  0
   68.2472   49.8269   12.5085 C   0  0  1  0  0  0  0  0  0  0  0  0
   70.1373   55.8596   15.0218 N   0  0  0  0  0  0  0  0  0  0  0  0
   71.3802   58.2886   17.7647 N   0  0  0  0  0  0  0  0  0  0  0  0
   69.7092   54.2531   17.0973 O   0  0  0  0  0  0  0  0  0  0  0  0
   71.8951   54.1563   16.0708 O   0  0  0  0  0  0  0  0  0  0  0  0
   69.4915   57.7459   16.0267 O   0  0  0  0  0  0  0  0  0  0  0  0
   70.8700   59.1319   19.8441 O   0  0  0  0  0  0  0  0  0  0  0  0
   72.9371   59.5968   19.1376 O   0  0  0  0  0  0  0  0  0  0  0  0
   74.1920   62.1461   19.6867 O   0  0  0  0  0  0  0  0  0  0  0  0
   72.1387   63.0052   19.2944 O   0  0  0  0  0  0  0  0  0  0  0  0
   68.9390   49.6340   11.3130 O   0  0  0  0  0  0  0  0  0  0  0  0
   70.4216   54.3728   15.7694 S   0  0  1  0  0  6  0  0  0  0  0  0
 14  1  1  1
  2 16  1  0
 30  2  1  0
 31  3  1  0
  3 35  2  0
  3 36  1  0
 18  4  1  0
  4 37  1  0
  5  6  1  6
 18  5  1  0
  5 19  1  0
  6 20  1  0
  8  7  2  0
 12  7  1  0
  7 29  1  0
  9  8  1  0
 10  9  2  0
 10 11  1  0
 40 10  1  0
 11 12  2  0
 13 14  1  0
 30 13  1  0
 14 15  1  0
 16 17  1  0
 16 34  1  1
 17 21  1  6
 17 31  1  0
 18 36  1  6
 19 37  1  6
 19 38  1  0
 38 20  1  0
 21 22  1  0
 22 23  1  0
 22 27  1  0
 23 24  1  0
 24 25  1  0
 26 25  1  0
 27 26  1  0
 29 28  1  6
 29 39  1  0
 40 30  1  6
 40 32  2  0
 40 33  2  0
M  END
$$$$
