
     RDKit          3D

 40 43  0  0  0  0  0  0  0  0999 V2000
   73.1281   54.6259   13.2717 C   0  0  0  0  0  0  0  0  0  0  0  0
   70.4088   57.0585   15.0484 C   0  0  0  0  0  0  0  0  0  0  0  0
   72.3610   59.6176   18.8751 C   0  0  0  0  0  0  0  0  0  0  0  0
   75.3285   60.6060   20.9459 C   0  0  0  0  0  0  0  0  0  0  0  0
   73.7263   61.9460   19.9552 C   0  0  1  0  0  0  0  0  0  0  0  0
   73.0480   61.8914   18.6043 C   0  0  0  0  0  0  0  0  0  0  0  0
   67.0431   52.0628   13.5205 C   0  0  0  0  0  0  0  0  0  0  0  0
   66.6847   53.0197   14.4338 C   0  0  0  0  0  0  0  0  0  0  0  0
   67.6179   53.7991   15.1113 C   0  0  0  0  0  0  0  0  0  0  0  0
   68.9349   53.6059   14.8596 C   0  0  0  0  0  0  0  0  0  0  0  0
   69.3292   52.6305   13.9266 C   0  0  0  0  0  0  0  0  0  0  0  0
   68.3993   51.8870   13.2827 C   0  0  0  0  0  0  0  0  0  0  0  0
   70.8609   55.4588   13.2614 C   0  0  0  0  0  0  0  0  0  0  0  0
   72.1280   55.5385   12.5187 C   0  0  2  0  0  0  0  0  0  0  0  0
   72.0815   55.0542   11.1008 C   0  0  0  0  0  0  0  0  0  0  0  0
   71.3999   57.3902   16.1486 C   0  0  2  0  0  0  0  0  0  0  0  0
   71.0500   58.5977   16.9907 C   0  0  2  0  0  0  0  0  0  0  0  0
   73.9038   60.5550   20.5589 C   0  0  1  0  0  0  0  0  0  0  0  0
   75.1342   62.3058   19.5903 C   0  0  1  0  0  0  0  0  0  0  0  0
   73.9125   62.8637   17.8047 C   0  0  0  0  0  0  0  0  0  0  0  0
   70.1769   59.5567   16.2438 C   0  0  0  0  0  0  0  0  0  0  0  0
   69.5659   60.6266   17.0844 C   0  0  0  0  0  0  0  0  0  0  0  0
   68.7839   61.6708   16.3600 C   0  0  0  0  0  0  0  0  0  0  0  0
   67.4941   62.0518   17.1204 C   0  0  0  0  0  0  0  0  0  0  0  0
   67.9151   62.3669   18.5199 C   0  0  0  0  0  0  0  0  0  0  0  0
   68.3643   61.0885   19.1972 C   0  0  0  0  0  0  0  0  0  0  0  0
   68.6700   60.0385   18.1778 C   0  0  0  0  0  0  0  0  0  0  0  0
   66.2517   49.7678   13.1648 C   0  0  0  0  0  0  0  0  0  0  0  0
   66.0447   51.2367   12.8020 C   0  0  1  0  0  0  0  0  0  0  0  0
   70.8039   55.7201   14.6384 N   0  0  0  0  0  0  0  0  0  0  0  0
   72.2593   59.1614   17.5433 N   0  0  0  0  0  0  0  0  0  0  0  0
   69.7544   54.9679   16.9632 O   0  0  0  0  0  0  0  0  0  0  0  0
   71.3303   53.4530   15.9323 O   0  0  0  0  0  0  0  0  0  0  0  0
   72.6252   57.5756   15.4859 O   0  0  0  0  0  0  0  0  0  0  0  0
   71.3655   59.9922   19.4942 O   0  0  0  0  0  0  0  0  0  0  0  0
   73.5747   59.6693   19.5513 O   0  0  0  0  0  0  0  0  0  0  0  0
   75.9532   61.2707   19.9425 O   0  0  0  0  0  0  0  0  0  0  0  0
   75.1801   62.4710   18.1904 O   0  0  0  0  0  0  0  0  0  0  0  0
   64.7454   51.6061   13.1490 O   0  0  0  0  0  0  0  0  0  0  0  0
   70.2431   54.4684   15.6227 S   0  0  1  0  0  6  0  0  0  0  0  0
 14  1  1  1
  2 16  1  0
 30  2  1  0
 31  3  1  0
  3 35  2  0
  3 36  1  0
 18  4  1  0
  4 37  1  0
  5  6  1  6
 18  5  1  0
  5 19  1  0
  6 20  1  0
  8  7  2  0
 12  7  1  0
  7 29  1  0
  9  8  1  0
 10  9  2  0
 10 11  1  0
 40 10  1  0
 11 12  2  0
 13 14  1  0
 30 13  1  0
 14 15  1  0
 16 17  1  0
 16 34  1  6
 17 21  1  6
 17 31  1  0
 18 36  1  6
 19 37  1  6
 19 38  1  0
 38 20  1  0
 21 22  1  0
 22 23  1  0
 22 27  1  0
 23 24  1  0
 24 25  1  0
 26 25  1  0
 27 26  1  0
 29 28  1  1
 29 39  1  0
 40 30  1  6
 40 32  2  0
 40 33  2  0
M  END
$$$$
