
     RDKit          3D

 40 43  0  0  0  0  0  0  0  0999 V2000
   72.1507   54.3294   15.7935 C   0  0  0  0  0  0  0  0  0  0  0  0
   69.5653   56.2053   16.3323 C   0  0  0  0  0  0  0  0  0  0  0  0
   72.7301   59.1347   18.0750 C   0  0  0  0  0  0  0  0  0  0  0  0
   76.1354   60.3894   18.9248 C   0  0  0  0  0  0  0  0  0  0  0  0
   74.1127   60.6339   20.0172 C   0  0  1  0  0  0  0  0  0  0  0  0
   72.7005   60.8292   19.5117 C   0  0  0  0  0  0  0  0  0  0  0  0
   69.0233   50.9079   12.1375 C   0  0  0  0  0  0  0  0  0  0  0  0
   68.9094   52.1461   11.5610 C   0  0  0  0  0  0  0  0  0  0  0  0
   68.6808   53.3020   12.3020 C   0  0  0  0  0  0  0  0  0  0  0  0
   68.5656   53.2018   13.6481 C   0  0  0  0  0  0  0  0  0  0  0  0
   68.6788   51.9430   14.2644 C   0  0  0  0  0  0  0  0  0  0  0  0
   68.9011   50.8357   13.5183 C   0  0  0  0  0  0  0  0  0  0  0  0
   70.6701   55.4885   14.2774 C   0  0  0  0  0  0  0  0  0  0  0  0
   72.0924   55.1939   14.5093 C   0  0  2  0  0  0  0  0  0  0  0  0
   72.7786   54.4132   13.4292 C   0  0  0  0  0  0  0  0  0  0  0  0
   70.4936   57.3264   15.9030 C   0  0  2  0  0  0  0  0  0  0  0  0
   70.6203   58.4715   16.8840 C   0  0  2  0  0  0  0  0  0  0  0  0
   74.8888   59.6338   19.1637 C   0  0  1  0  0  0  0  0  0  0  0  0
   74.7663   61.9297   19.6447 C   0  0  1  0  0  0  0  0  0  0  0  0
   72.5726   62.3492   19.5846 C   0  0  0  0  0  0  0  0  0  0  0  0
   69.5778   59.5188   16.6467 C   0  0  0  0  0  0  0  0  0  0  0  0
   68.9917   60.1057   17.8864 C   0  0  0  0  0  0  0  0  0  0  0  0
   68.0153   61.2176   17.6938 C   0  0  0  0  0  0  0  0  0  0  0  0
   66.8168   61.1023   18.6618 C   0  0  0  0  0  0  0  0  0  0  0  0
   67.4011   60.9402   20.0284 C   0  0  0  0  0  0  0  0  0  0  0  0
   68.0659   59.5821   20.1201 C   0  0  0  0  0  0  0  0  0  0  0  0
   68.3238   59.0348   18.7531 C   0  0  0  0  0  0  0  0  0  0  0  0
   68.5393   49.7942   10.0056 C   0  0  0  0  0  0  0  0  0  0  0  0
   69.2674   49.6812   11.3432 C   0  0  1  0  0  0  0  0  0  0  0  0
   69.7019   55.2326   15.2596 N   0  0  0  0  0  0  0  0  0  0  0  0
   71.9845   58.9452   16.8917 N   0  0  0  0  0  0  0  0  0  0  0  0
   67.3657   55.5197   14.0219 O   0  0  0  0  0  0  0  0  0  0  0  0
   67.4344   53.9856   15.8882 O   0  0  0  0  0  0  0  0  0  0  0  0
   69.9778   57.7704   14.6735 O   0  0  0  0  0  0  0  0  0  0  0  0
   72.1911   59.0751   19.1798 O   0  0  0  0  0  0  0  0  0  0  0  0
   74.0955   59.3963   18.0581 O   0  0  0  0  0  0  0  0  0  0  0  0
   75.7486   61.6745   18.7303 O   0  0  0  0  0  0  0  0  0  0  0  0
   73.7826   62.7437   19.0459 O   0  0  0  0  0  0  0  0  0  0  0  0
   70.6292   49.5043   11.0996 O   0  0  0  0  0  0  0  0  0  0  0  0
   68.2594   54.5301   14.7341 S   0  0  1  0  0  6  0  0  0  0  0  0
 14  1  1  1
  2 16  1  0
 30  2  1  0
 31  3  1  0
  3 35  2  0
  3 36  1  0
 18  4  1  0
  4 37  1  0
  5  6  1  6
 18  5  1  0
  5 19  1  0
  6 20  1  0
  8  7  2  0
 12  7  1  0
  7 29  1  0
  9  8  1  0
 10  9  2  0
 10 11  1  0
 40 10  1  0
 11 12  2  0
 13 14  1  0
 30 13  1  0
 14 15  1  0
 16 17  1  0
 16 34  1  6
 17 21  1  6
 17 31  1  0
 18 36  1  6
 19 37  1  6
 19 38  1  0
 38 20  1  0
 21 22  1  0
 22 23  1  0
 22 27  1  0
 23 24  1  0
 24 25  1  0
 26 25  1  0
 27 26  1  0
 29 28  1  6
 29 39  1  0
 40 30  1  1
 40 32  2  0
 40 33  2  0
M  END
$$$$
