
     RDKit          3D

 40 43  0  0  0  0  0  0  0  0999 V2000
   73.9294   54.9298   15.0986 C   0  0  0  0  0  0  0  0  0  0  0  0
   71.5934   57.2161   14.1738 C   0  0  0  0  0  0  0  0  0  0  0  0
   72.6024   59.0833   17.6779 C   0  0  0  0  0  0  0  0  0  0  0  0
   75.8199   60.4221   19.0701 C   0  0  0  0  0  0  0  0  0  0  0  0
   73.6742   60.6323   19.9044 C   0  0  1  0  0  0  0  0  0  0  0  0
   72.3443   60.9008   19.2356 C   0  0  0  0  0  0  0  0  0  0  0  0
   67.2646   52.7550   12.8414 C   0  0  0  0  0  0  0  0  0  0  0  0
   68.3051   52.3210   13.6209 C   0  0  0  0  0  0  0  0  0  0  0  0
   69.0788   53.1848   14.3906 C   0  0  0  0  0  0  0  0  0  0  0  0
   68.7940   54.5092   14.3702 C   0  0  0  0  0  0  0  0  0  0  0  0
   67.7314   54.9803   13.5789 C   0  0  0  0  0  0  0  0  0  0  0  0
   66.9959   54.1168   12.8402 C   0  0  0  0  0  0  0  0  0  0  0  0
   71.7805   54.7885   14.0048 C   0  0  0  0  0  0  0  0  0  0  0  0
   73.2236   54.6791   13.7425 C   0  0  2  0  0  0  0  0  0  0  0  0
   73.6948   53.3446   13.2483 C   0  0  0  0  0  0  0  0  0  0  0  0
   70.4930   58.1015   14.7286 C   0  0  2  0  0  0  0  0  0  0  0  0
   70.6722   58.5285   16.1692 C   0  0  2  0  0  0  0  0  0  0  0  0
   74.5418   59.6816   19.0833 C   0  0  1  0  0  0  0  0  0  0  0  0
   74.3901   61.9362   19.7245 C   0  0  1  0  0  0  0  0  0  0  0  0
   72.2300   62.4135   19.4113 C   0  0  0  0  0  0  0  0  0  0  0  0
   69.6659   59.5623   16.5671 C   0  0  0  0  0  0  0  0  0  0  0  0
   69.6552   59.8931   18.0215 C   0  0  0  0  0  0  0  0  0  0  0  0
   68.9170   61.1296   18.4129 C   0  0  0  0  0  0  0  0  0  0  0  0
   68.1097   60.9276   19.7144 C   0  0  0  0  0  0  0  0  0  0  0  0
   69.0678   60.3632   20.7138 C   0  0  0  0  0  0  0  0  0  0  0  0
   69.4354   58.9532   20.2995 C   0  0  0  0  0  0  0  0  0  0  0  0
   69.1095   58.7322   18.8574 C   0  0  0  0  0  0  0  0  0  0  0  0
   65.4569   51.0987   12.9315 C   0  0  0  0  0  0  0  0  0  0  0  0
   66.4442   51.8301   12.0248 C   0  0  1  0  0  0  0  0  0  0  0  0
   71.2422   55.8968   14.6754 N   0  0  0  0  0  0  0  0  0  0  0  0
   72.0527   58.8887   16.3926 N   0  0  0  0  0  0  0  0  0  0  0  0
   68.8814   57.0295   15.1399 O   0  0  0  0  0  0  0  0  0  0  0  0
   69.6216   55.3551   16.7179 O   0  0  0  0  0  0  0  0  0  0  0  0
   69.3136   57.3547   14.5670 O   0  0  0  0  0  0  0  0  0  0  0  0
   71.9451   58.8452   18.6908 O   0  0  0  0  0  0  0  0  0  0  0  0
   73.8985   59.5492   17.8681 O   0  0  0  0  0  0  0  0  0  0  0  0
   75.4810   61.7276   18.9291 O   0  0  0  0  0  0  0  0  0  0  0  0
   73.5062   62.8179   19.0685 O   0  0  0  0  0  0  0  0  0  0  0  0
   65.7288   52.5233   11.0487 O   0  0  0  0  0  0  0  0  0  0  0  0
   69.6618   55.7394   15.2482 S   0  0  1  0  0  6  0  0  0  0  0  0
 14  1  1  1
  2 16  1  0
 30  2  1  0
 31  3  1  0
  3 35  2  0
  3 36  1  0
 18  4  1  0
  4 37  1  0
  5  6  1  6
 18  5  1  0
  5 19  1  0
  6 20  1  0
  8  7  2  0
 12  7  1  0
  7 29  1  0
  9  8  1  0
 10  9  2  0
 10 11  1  0
 40 10  1  0
 11 12  2  0
 13 14  1  0
 30 13  1  0
 14 15  1  0
 16 17  1  0
 16 34  1  1
 17 21  1  6
 17 31  1  0
 18 36  1  6
 19 37  1  6
 19 38  1  0
 38 20  1  0
 21 22  1  0
 22 23  1  0
 22 27  1  0
 23 24  1  0
 24 25  1  0
 26 25  1  0
 27 26  1  0
 29 28  1  1
 29 39  1  0
 40 30  1  6
 40 32  2  0
 40 33  2  0
M  END
$$$$
