
     RDKit          3D

 40 43  0  0  0  0  0  0  0  0999 V2000
   73.7543   55.2508   14.6474 C   0  0  0  0  0  0  0  0  0  0  0  0
   69.9534   57.0187   14.2362 C   0  0  0  0  0  0  0  0  0  0  0  0
   72.3257   58.6983   18.0664 C   0  0  0  0  0  0  0  0  0  0  0  0
   75.4221   60.7541   18.6278 C   0  0  0  0  0  0  0  0  0  0  0  0
   73.8318   60.2256   20.2202 C   0  0  1  0  0  0  0  0  0  0  0  0
   72.3196   60.2489   20.1946 C   0  0  0  0  0  0  0  0  0  0  0  0
   66.9701   52.1912   13.4228 C   0  0  0  0  0  0  0  0  0  0  0  0
   67.8391   51.6538   14.3363 C   0  0  0  0  0  0  0  0  0  0  0  0
   68.6892   52.4344   15.1144 C   0  0  0  0  0  0  0  0  0  0  0  0
   68.6584   53.7805   14.9645 C   0  0  0  0  0  0  0  0  0  0  0  0
   67.7756   54.3570   14.0342 C   0  0  0  0  0  0  0  0  0  0  0  0
   66.9602   53.5729   13.2909 C   0  0  0  0  0  0  0  0  0  0  0  0
   71.4556   55.1219   13.9169 C   0  0  0  0  0  0  0  0  0  0  0  0
   72.7671   55.6611   13.5263 C   0  0  2  0  0  0  0  0  0  0  0  0
   73.3287   55.1353   12.2397 C   0  0  0  0  0  0  0  0  0  0  0  0
   70.8577   58.1451   14.7014 C   0  0  2  0  0  0  0  0  0  0  0  0
   70.7044   58.5384   16.1544 C   0  0  2  0  0  0  0  0  0  0  0  0
   74.4147   59.7103   18.9066 C   0  0  1  0  0  0  0  0  0  0  0  0
   74.1737   61.6831   20.1586 C   0  0  1  0  0  0  0  0  0  0  0  0
   72.0387   61.6163   20.8137 C   0  0  0  0  0  0  0  0  0  0  0  0
   70.4022   59.9968   16.3020 C   0  0  0  0  0  0  0  0  0  0  0  0
   69.7718   60.3736   17.6002 C   0  0  0  0  0  0  0  0  0  0  0  0
   70.7044   60.7330   18.7083 C   0  0  0  0  0  0  0  0  0  0  0  0
   70.1902   61.9420   19.5210 C   0  0  0  0  0  0  0  0  0  0  0  0
   68.7798   61.6194   19.8977 C   0  0  0  0  0  0  0  0  0  0  0  0
   67.9219   61.6377   18.6493 C   0  0  0  0  0  0  0  0  0  0  0  0
   68.7765   61.5241   17.4280 C   0  0  0  0  0  0  0  0  0  0  0  0
   66.8698   50.7063   11.4723 C   0  0  0  0  0  0  0  0  0  0  0  0
   66.0671   51.3548   12.5980 C   0  0  1  0  0  0  0  0  0  0  0  0
   70.5999   55.8314   14.7726 N   0  0  0  0  0  0  0  0  0  0  0  0
   71.8455   58.0631   16.9011 N   0  0  0  0  0  0  0  0  0  0  0  0
   68.7577   55.7720   16.6896 O   0  0  0  0  0  0  0  0  0  0  0  0
   70.5090   54.1103   16.8026 O   0  0  0  0  0  0  0  0  0  0  0  0
   70.5559   59.2235   13.8524 O   0  0  0  0  0  0  0  0  0  0  0  0
   71.8491   58.4394   19.1712 O   0  0  0  0  0  0  0  0  0  0  0  0
   73.3487   59.6391   18.0310 O   0  0  0  0  0  0  0  0  0  0  0  0
   74.8418   61.9245   18.9917 O   0  0  0  0  0  0  0  0  0  0  0  0
   72.9610   62.4029   20.1500 O   0  0  0  0  0  0  0  0  0  0  0  0
   65.4752   50.3504   13.3636 O   0  0  0  0  0  0  0  0  0  0  0  0
   69.6591   54.9133   15.8321 S   0  0  1  0  0  6  0  0  0  0  0  0
 14  1  1  1
  2 16  1  0
 30  2  1  0
 31  3  1  0
  3 35  2  0
  3 36  1  0
 18  4  1  0
  4 37  1  0
  5  6  1  6
 18  5  1  0
  5 19  1  0
  6 20  1  0
  8  7  2  0
 12  7  1  0
  7 29  1  0
  9  8  1  0
 10  9  2  0
 10 11  1  0
 40 10  1  0
 11 12  2  0
 13 14  1  0
 30 13  1  0
 14 15  1  0
 16 17  1  0
 16 34  1  6
 17 21  1  6
 17 31  1  0
 18 36  1  6
 19 37  1  6
 19 38  1  0
 38 20  1  0
 21 22  1  0
 22 23  1  0
 22 27  1  0
 23 24  1  0
 24 25  1  0
 26 25  1  0
 27 26  1  0
 29 28  1  6
 29 39  1  0
 40 30  1  6
 40 32  2  0
 40 33  2  0
M  END
$$$$
