
     RDKit          3D

 40 43  0  0  0  0  0  0  0  0999 V2000
   73.3806   55.1693   13.9552 C   0  0  0  0  0  0  0  0  0  0  0  0
   71.6176   56.6091   15.7440 C   0  0  0  0  0  0  0  0  0  0  0  0
   72.7749   59.2798   17.9441 C   0  0  0  0  0  0  0  0  0  0  0  0
   76.0217   60.8735   18.9121 C   0  0  0  0  0  0  0  0  0  0  0  0
   74.0178   60.7724   20.0601 C   0  0  1  0  0  0  0  0  0  0  0  0
   72.5792   60.8929   19.6084 C   0  0  0  0  0  0  0  0  0  0  0  0
   67.0360   52.4306   12.9556 C   0  0  0  0  0  0  0  0  0  0  0  0
   66.9732   53.7624   12.6382 C   0  0  0  0  0  0  0  0  0  0  0  0
   67.6314   54.7426   13.3753 C   0  0  0  0  0  0  0  0  0  0  0  0
   68.3648   54.3676   14.4508 C   0  0  0  0  0  0  0  0  0  0  0  0
   68.4459   53.0073   14.7977 C   0  0  0  0  0  0  0  0  0  0  0  0
   67.7949   52.0758   14.0624 C   0  0  0  0  0  0  0  0  0  0  0  0
   71.0378   55.6268   13.5863 C   0  0  0  0  0  0  0  0  0  0  0  0
   72.1845   54.9126   13.0047 C   0  0  2  0  0  0  0  0  0  0  0  0
   72.0333   53.4257   12.8894 C   0  0  0  0  0  0  0  0  0  0  0  0
   70.9500   57.9395   15.4487 C   0  0  2  0  0  0  0  0  0  0  0  0
   70.6700   58.8043   16.6584 C   0  0  2  0  0  0  0  0  0  0  0  0
   74.8602   59.9743   19.0681 C   0  0  1  0  0  0  0  0  0  0  0  0
   74.5339   62.1638   19.8537 C   0  0  1  0  0  0  0  0  0  0  0  0
   72.3094   62.3701   19.8859 C   0  0  0  0  0  0  0  0  0  0  0  0
   69.3846   59.5569   16.5126 C   0  0  0  0  0  0  0  0  0  0  0  0
   68.9106   60.2264   17.7584 C   0  0  0  0  0  0  0  0  0  0  0  0
   67.6942   61.0810   17.6278 C   0  0  0  0  0  0  0  0  0  0  0  0
   66.7403   60.9081   18.8306 C   0  0  0  0  0  0  0  0  0  0  0  0
   67.5769   61.0995   20.0548 C   0  0  0  0  0  0  0  0  0  0  0  0
   68.5310   59.9300   20.1850 C   0  0  0  0  0  0  0  0  0  0  0  0
   68.6591   59.2140   18.8790 C   0  0  0  0  0  0  0  0  0  0  0  0
   67.3395   50.6757   11.2681 C   0  0  0  0  0  0  0  0  0  0  0  0
   66.3335   51.3918   12.1664 C   0  0  1  0  0  0  0  0  0  0  0  0
   70.8269   55.6629   14.9727 N   0  0  0  0  0  0  0  0  0  0  0  0
   71.8318   59.6117   16.9478 N   0  0  0  0  0  0  0  0  0  0  0  0
   68.4756   56.7540   15.5665 O   0  0  0  0  0  0  0  0  0  0  0  0
   69.1743   54.8649   16.9023 O   0  0  0  0  0  0  0  0  0  0  0  0
   69.7593   57.6050   14.7815 O   0  0  0  0  0  0  0  0  0  0  0  0
   72.4886   58.5012   18.8532 O   0  0  0  0  0  0  0  0  0  0  0  0
   74.0612   59.8075   17.9538 O   0  0  0  0  0  0  0  0  0  0  0  0
   75.5089   62.1288   18.8975 O   0  0  0  0  0  0  0  0  0  0  0  0
   73.4601   62.9490   19.3852 O   0  0  0  0  0  0  0  0  0  0  0  0
   65.7281   50.4523   13.0007 O   0  0  0  0  0  0  0  0  0  0  0  0
   69.2377   55.4501   15.5014 S   0  0  1  0  0  6  0  0  0  0  0  0
 14  1  1  1
  2 16  1  0
 30  2  1  0
 31  3  1  0
  3 35  2  0
  3 36  1  0
 18  4  1  0
  4 37  1  0
  5  6  1  6
 18  5  1  0
  5 19  1  0
  6 20  1  0
  8  7  2  0
 12  7  1  0
  7 29  1  0
  9  8  1  0
 10  9  2  0
 10 11  1  0
 40 10  1  0
 11 12  2  0
 13 14  1  0
 30 13  1  0
 14 15  1  0
 16 17  1  0
 16 34  1  1
 17 21  1  6
 17 31  1  0
 18 36  1  6
 19 37  1  6
 19 38  1  0
 38 20  1  0
 21 22  1  0
 22 23  1  0
 22 27  1  0
 23 24  1  0
 24 25  1  0
 26 25  1  0
 27 26  1  0
 29 28  1  6
 29 39  1  0
 40 30  1  6
 40 32  2  0
 40 33  2  0
M  END
$$$$
