
     RDKit          3D

 28 30  0  0  0  0  0  0  0  0999 V2000
  -29.2902   52.6723    8.2748 C   0  0  0  0  0  0  0  0  0  0  0  0
  -30.3226   51.6958    8.8006 C   0  0  0  0  0  0  0  0  0  0  0  0
  -28.5828   50.2031    8.0800 C   0  0  0  0  0  0  0  0  0  0  0  0
  -29.4854   46.7115    9.6332 C   0  0  0  0  0  0  0  0  0  0  0  0
  -29.4284   45.3984    9.1642 C   0  0  0  0  0  0  0  0  0  0  0  0
  -26.2288   50.7462    8.3680 C   0  0  0  0  0  0  0  0  0  0  0  0
  -27.6305   50.9792    8.9460 C   0  0  1  0  0  0  0  0  0  0  0  0
  -27.9765   52.4395    8.9944 C   0  0  0  0  0  0  0  0  0  0  0  0
  -29.9578   50.3454    8.4895 N   0  0  0  0  0  0  0  0  0  0  0  0
  -30.4075   49.2902    9.7520 S   0  0  2  0  0  6  0  0  0  0  0  0
  -31.8258   49.5856   10.2039 O   0  0  0  0  0  0  0  0  0  0  0  0
  -29.4396   49.4025   10.8955 O   0  0  0  0  0  0  0  0  0  0  0  0
  -30.3653   47.6526    9.1384 C   0  0  0  0  0  0  0  0  0  0  0  0
  -28.4904   44.5205    9.7419 N   0  0  0  0  0  0  0  0  0  0  0  0
  -27.5341   44.7998   10.7191 C   0  0  0  0  0  0  0  0  0  0  0  0
  -27.5252   45.9111   11.2798 O   0  0  0  0  0  0  0  0  0  0  0  0
  -26.4849   43.8038   11.1430 C   0  0  0  0  0  0  0  0  0  0  0  0
  -25.2397   44.0487   10.4804 N   0  0  0  0  0  0  0  0  0  0  0  0
  -25.0117   44.1401    9.0832 C   0  0  0  0  0  0  0  0  0  0  0  0
  -25.8860   44.1392    8.1822 O   0  0  0  0  0  0  0  0  0  0  0  0
  -23.5563   44.2372    8.8699 C   0  0  0  0  0  0  0  0  0  0  0  0
  -22.9948   44.4571   10.1895 N   0  0  0  0  0  0  0  0  0  0  0  0
  -23.9890   44.2453   11.1649 C   0  0  0  0  0  0  0  0  0  0  0  0
  -23.8491   44.2242   12.4224 O   0  0  0  0  0  0  0  0  0  0  0  0
  -30.3091   45.0873    8.1673 C   0  0  0  0  0  0  0  0  0  0  0  0
  -31.2190   46.0289    7.6430 C   0  0  0  0  0  0  0  0  0  0  0  0
  -31.2436   47.3136    8.1328 C   0  0  0  0  0  0  0  0  0  0  0  0
  -32.4426   48.6373    7.4750 Br  0  0  0  0  0  0  0  0  0  0  0  0
  2  1  1  0
  1  8  1  0
  9  2  1  0
  3  7  1  0
  9  3  1  0
  4  5  2  0
 13  4  1  0
  5 14  1  0
  5 25  1  0
  7  6  1  6
  7  8  1  0
 10  9  1  6
 10 11  2  0
 10 12  2  0
 10 13  1  0
 13 27  2  0
 14 15  1  0
 15 16  2  0
 15 17  1  0
 17 18  1  0
 18 19  1  0
 18 23  1  0
 19 20  2  0
 19 21  1  0
 21 22  1  0
 22 23  1  0
 23 24  2  0
 25 26  2  0
 26 27  1  0
 27 28  1  0
M  END
$$$$
