
     RDKit          3D

 28 30  0  0  0  0  0  0  0  0999 V2000
  -27.7320   51.5888    6.7403 C   0  0  0  0  0  0  0  0  0  0  0  0
  -28.1676   50.1459    6.8963 C   0  0  0  0  0  0  0  0  0  0  0  0
  -28.7628   51.0546    9.0397 C   0  0  0  0  0  0  0  0  0  0  0  0
  -28.9014   47.2795   10.3896 C   0  0  0  0  0  0  0  0  0  0  0  0
  -28.9259   46.7051   11.6612 C   0  0  0  0  0  0  0  0  0  0  0  0
  -29.6695   53.3003    9.2716 C   0  0  0  0  0  0  0  0  0  0  0  0
  -29.5551   52.1065    8.3152 C   0  0  1  0  0  0  0  0  0  0  0  0
  -28.9153   52.4957    7.0137 C   0  0  0  0  0  0  0  0  0  0  0  0
  -28.5495   49.8679    8.2492 N   0  0  0  0  0  0  0  0  0  0  0  0
  -29.8551   48.7713    8.2970 S   0  0  2  0  0  6  0  0  0  0  0  0
  -29.6353   47.6485    7.2998 O   0  0  0  0  0  0  0  0  0  0  0  0
  -31.1483   49.4877    8.0302 O   0  0  0  0  0  0  0  0  0  0  0  0
  -29.9215   48.0680    9.8973 C   0  0  0  0  0  0  0  0  0  0  0  0
  -27.8293   45.9169   12.0619 N   0  0  0  0  0  0  0  0  0  0  0  0
  -26.5143   45.9674   11.5977 C   0  0  0  0  0  0  0  0  0  0  0  0
  -26.2438   46.6095   10.5662 O   0  0  0  0  0  0  0  0  0  0  0  0
  -25.3749   45.2688   12.2950 C   0  0  0  0  0  0  0  0  0  0  0  0
  -24.5606   44.5483   11.3637 N   0  0  0  0  0  0  0  0  0  0  0  0
  -24.4998   43.1427   11.1813 C   0  0  0  0  0  0  0  0  0  0  0  0
  -25.2390   42.2863   11.7256 O   0  0  0  0  0  0  0  0  0  0  0  0
  -23.4078   42.8587   10.2325 C   0  0  0  0  0  0  0  0  0  0  0  0
  -23.0301   44.1514    9.6930 N   0  0  0  0  0  0  0  0  0  0  0  0
  -23.6494   45.1723   10.4408 C   0  0  0  0  0  0  0  0  0  0  0  0
  -23.4658   46.4209   10.3486 O   0  0  0  0  0  0  0  0  0  0  0  0
  -30.0378   46.9708   12.4091 C   0  0  0  0  0  0  0  0  0  0  0  0
  -31.0949   47.7730   11.9313 C   0  0  0  0  0  0  0  0  0  0  0  0
  -31.0323   48.3209   10.6717 C   0  0  0  0  0  0  0  0  0  0  0  0
  -32.4194   49.4126    9.9599 Br  0  0  0  0  0  0  0  0  0  0  0  0
  2  1  1  0
  1  8  1  0
  9  2  1  0
  3  7  1  0
  9  3  1  0
  4  5  2  0
 13  4  1  0
  5 14  1  0
  5 25  1  0
  7  6  1  1
  7  8  1  0
 10  9  1  1
 10 11  2  0
 10 12  2  0
 10 13  1  0
 13 27  2  0
 14 15  1  0
 15 16  2  0
 15 17  1  0
 17 18  1  0
 18 19  1  0
 18 23  1  0
 19 20  2  0
 19 21  1  0
 21 22  1  0
 22 23  1  0
 23 24  2  0
 25 26  2  0
 26 27  1  0
 27 28  1  0
M  END
$$$$
