
     RDKit          3D

 28 30  0  0  0  0  0  0  0  0999 V2000
  -28.4819   51.5010    9.3930 C   0  0  0  0  0  0  0  0  0  0  0  0
  -29.0775   50.3622   10.1959 C   0  0  0  0  0  0  0  0  0  0  0  0
  -31.0317   51.6753    9.7149 C   0  0  0  0  0  0  0  0  0  0  0  0
  -29.1443   47.5830   10.1542 C   0  0  0  0  0  0  0  0  0  0  0  0
  -28.3518   46.6057    9.5505 C   0  0  0  0  0  0  0  0  0  0  0  0
  -31.3313   52.7883    7.5724 C   0  0  0  0  0  0  0  0  0  0  0  0
  -30.6680   51.5877    8.2591 C   0  0  1  0  0  0  0  0  0  0  0  0
  -29.1810   51.5791    8.0503 C   0  0  0  0  0  0  0  0  0  0  0  0
  -30.4541   50.6152   10.5031 N   0  0  0  0  0  0  0  0  0  0  0  0
  -31.3578   49.1689   10.4699 S   0  0  2  0  0  6  0  0  0  0  0  0
  -32.6254   49.3596    9.6575 O   0  0  0  0  0  0  0  0  0  0  0  0
  -31.6726   48.7180   11.8679 O   0  0  0  0  0  0  0  0  0  0  0  0
  -30.3930   47.9381    9.6859 C   0  0  0  0  0  0  0  0  0  0  0  0
  -27.0919   46.3228   10.1133 N   0  0  0  0  0  0  0  0  0  0  0  0
  -26.7930   45.9769   11.4318 C   0  0  0  0  0  0  0  0  0  0  0  0
  -27.6968   45.9512   12.2873 O   0  0  0  0  0  0  0  0  0  0  0  0
  -25.4002   45.6239   11.8877 C   0  0  0  0  0  0  0  0  0  0  0  0
  -24.6515   45.0054   10.8358 N   0  0  0  0  0  0  0  0  0  0  0  0
  -24.3956   43.6211   10.6605 C   0  0  0  0  0  0  0  0  0  0  0  0
  -24.8818   42.6805   11.3351 O   0  0  0  0  0  0  0  0  0  0  0  0
  -23.4508   43.4764    9.5382 C   0  0  0  0  0  0  0  0  0  0  0  0
  -23.3858   44.7907    8.9270 N   0  0  0  0  0  0  0  0  0  0  0  0
  -24.0251   45.7292    9.7609 C   0  0  0  0  0  0  0  0  0  0  0  0
  -24.0650   46.9867    9.6246 O   0  0  0  0  0  0  0  0  0  0  0  0
  -28.8898   46.0061    8.4472 C   0  0  0  0  0  0  0  0  0  0  0  0
  -30.1632   46.3492    7.9470 C   0  0  0  0  0  0  0  0  0  0  0  0
  -30.9131   47.3182    8.5711 C   0  0  0  0  0  0  0  0  0  0  0  0
  -32.6382   47.8335    7.9539 Br  0  0  0  0  0  0  0  0  0  0  0  0
  2  1  1  0
  1  8  1  0
  9  2  1  0
  3  7  1  0
  9  3  1  0
  4  5  2  0
 13  4  1  0
  5 14  1  0
  5 25  1  0
  7  6  1  6
  7  8  1  0
 10  9  1  1
 10 11  2  0
 10 12  2  0
 10 13  1  0
 13 27  2  0
 14 15  1  0
 15 16  2  0
 15 17  1  0
 17 18  1  0
 18 19  1  0
 18 23  1  0
 19 20  2  0
 19 21  1  0
 21 22  1  0
 22 23  1  0
 23 24  2  0
 25 26  2  0
 26 27  1  0
 27 28  1  0
M  END
$$$$
