
     RDKit          3D

 28 30  0  0  0  0  0  0  0  0999 V2000
  -30.0839   50.8770    4.9211 C   0  0  0  0  0  0  0  0  0  0  0  0
  -29.4602   51.3057    6.2338 C   0  0  0  0  0  0  0  0  0  0  0  0
  -30.3887   49.1699    6.8259 C   0  0  0  0  0  0  0  0  0  0  0  0
  -28.7686   48.2701   10.3117 C   0  0  0  0  0  0  0  0  0  0  0  0
  -29.2579   47.6851   11.4804 C   0  0  0  0  0  0  0  0  0  0  0  0
  -30.3557   47.2875    5.2850 C   0  0  0  0  0  0  0  0  0  0  0  0
  -29.6231   48.5771    5.6763 C   0  0  1  0  0  0  0  0  0  0  0  0
  -29.5173   49.5294    4.5202 C   0  0  0  0  0  0  0  0  0  0  0  0
  -29.8277   50.4132    7.2930 N   0  0  0  0  0  0  0  0  0  0  0  0
  -28.5374   50.2113    8.3901 S   0  0  2  0  0  6  0  0  0  0  0  0
  -27.9272   51.5567    8.7374 O   0  0  0  0  0  0  0  0  0  0  0  0
  -27.5067   49.2802    7.8177 O   0  0  0  0  0  0  0  0  0  0  0  0
  -29.1737   49.5100    9.8610 C   0  0  0  0  0  0  0  0  0  0  0  0
  -28.7743   46.4138   11.8467 N   0  0  0  0  0  0  0  0  0  0  0  0
  -27.4815   46.0608   12.2357 C   0  0  0  0  0  0  0  0  0  0  0  0
  -26.6930   46.9361   12.6378 O   0  0  0  0  0  0  0  0  0  0  0  0
  -26.9752   44.6415   12.1944 C   0  0  0  0  0  0  0  0  0  0  0  0
  -26.1791   44.4087   11.0275 N   0  0  0  0  0  0  0  0  0  0  0  0
  -24.7634   44.3675   10.9457 C   0  0  0  0  0  0  0  0  0  0  0  0
  -23.9582   44.4113   11.9079 O   0  0  0  0  0  0  0  0  0  0  0  0
  -24.3976   44.2633    9.5214 C   0  0  0  0  0  0  0  0  0  0  0  0
  -25.6433   43.9881    8.8304 N   0  0  0  0  0  0  0  0  0  0  0  0
  -26.7233   44.1735    9.7160 C   0  0  0  0  0  0  0  0  0  0  0  0
  -27.9595   44.1459    9.4473 O   0  0  0  0  0  0  0  0  0  0  0  0
  -30.1794   48.4213   12.1696 C   0  0  0  0  0  0  0  0  0  0  0  0
  -30.6113   49.6907   11.7323 C   0  0  0  0  0  0  0  0  0  0  0  0
  -30.1045   50.2325   10.5746 C   0  0  0  0  0  0  0  0  0  0  0  0
  -30.6395   51.9388    9.9228 Br  0  0  0  0  0  0  0  0  0  0  0  0
  2  1  1  0
  1  8  1  0
  9  2  1  0
  3  7  1  0
  9  3  1  0
  4  5  2  0
 13  4  1  0
  5 14  1  0
  5 25  1  0
  7  6  1  6
  7  8  1  0
 10  9  1  6
 10 11  2  0
 10 12  2  0
 10 13  1  0
 13 27  2  0
 14 15  1  0
 15 16  2  0
 15 17  1  0
 17 18  1  0
 18 19  1  0
 18 23  1  0
 19 20  2  0
 19 21  1  0
 21 22  1  0
 22 23  1  0
 23 24  2  0
 25 26  2  0
 26 27  1  0
 27 28  1  0
M  END
$$$$
