
     RDKit          3D

 28 30  0  0  0  0  0  0  0  0999 V2000
  -32.4372   48.1503    6.8489 C   0  0  0  0  0  0  0  0  0  0  0  0
  -32.8736   47.1331    7.8838 C   0  0  0  0  0  0  0  0  0  0  0  0
  -31.7695   45.7293    6.2762 C   0  0  0  0  0  0  0  0  0  0  0  0
  -30.3476   45.9045   10.4106 C   0  0  0  0  0  0  0  0  0  0  0  0
  -29.9174   46.6995   11.4738 C   0  0  0  0  0  0  0  0  0  0  0  0
  -29.7544   46.4482    5.1180 C   0  0  0  0  0  0  0  0  0  0  0  0
  -30.5615   46.6132    6.4120 C   0  0  1  0  0  0  0  0  0  0  0  0
  -30.9375   48.0466    6.6541 C   0  0  0  0  0  0  0  0  0  0  0  0
  -32.6466   45.7970    7.4184 N   0  0  0  0  0  0  0  0  0  0  0  0
  -32.1742   44.7800    8.7038 S   0  0  2  0  0  6  0  0  0  0  0  0
  -30.9901   43.9256    8.2902 O   0  0  0  0  0  0  0  0  0  0  0  0
  -33.3294   43.9276    9.1464 O   0  0  0  0  0  0  0  0  0  0  0  0
  -31.6728   45.7872   10.0433 C   0  0  0  0  0  0  0  0  0  0  0  0
  -28.5392   46.7457   11.7612 N   0  0  0  0  0  0  0  0  0  0  0  0
  -27.5102   46.0053   11.1779 C   0  0  0  0  0  0  0  0  0  0  0  0
  -27.7421   45.2984   10.1799 O   0  0  0  0  0  0  0  0  0  0  0  0
  -26.0974   46.0154   11.7038 C   0  0  0  0  0  0  0  0  0  0  0  0
  -25.1861   45.4543   10.7529 N   0  0  0  0  0  0  0  0  0  0  0  0
  -24.5280   44.1999   10.8282 C   0  0  0  0  0  0  0  0  0  0  0  0
  -24.7203   43.3060   11.6885 O   0  0  0  0  0  0  0  0  0  0  0  0
  -23.5695   44.1265    9.7105 C   0  0  0  0  0  0  0  0  0  0  0  0
  -23.8912   45.2585    8.8619 N   0  0  0  0  0  0  0  0  0  0  0  0
  -24.7907   46.1094    9.5339 C   0  0  0  0  0  0  0  0  0  0  0  0
  -25.2013   47.2487    9.1667 O   0  0  0  0  0  0  0  0  0  0  0  0
  -30.8993   47.3702   12.1463 C   0  0  0  0  0  0  0  0  0  0  0  0
  -32.2610   47.2687   11.7926 C   0  0  0  0  0  0  0  0  0  0  0  0
  -32.6440   46.4741   10.7378 C   0  0  0  0  0  0  0  0  0  0  0  0
  -34.4611   46.2882   10.2030 Br  0  0  0  0  0  0  0  0  0  0  0  0
  2  1  1  0
  1  8  1  0
  9  2  1  0
  3  7  1  0
  9  3  1  0
  4  5  2  0
 13  4  1  0
  5 14  1  0
  5 25  1  0
  7  6  1  6
  7  8  1  0
 10  9  1  6
 10 11  2  0
 10 12  2  0
 10 13  1  0
 13 27  2  0
 14 15  1  0
 15 16  2  0
 15 17  1  0
 17 18  1  0
 18 19  1  0
 18 23  1  0
 19 20  2  0
 19 21  1  0
 21 22  1  0
 22 23  1  0
 23 24  2  0
 25 26  2  0
 26 27  1  0
 27 28  1  0
M  END
$$$$
