
     RDKit          3D

 28 30  0  0  0  0  0  0  0  0999 V2000
  -33.6781   44.2029    6.7218 C   0  0  0  0  0  0  0  0  0  0  0  0
  -33.5686   45.2273    7.8330 C   0  0  0  0  0  0  0  0  0  0  0  0
  -31.5364   43.9813    8.1357 C   0  0  0  0  0  0  0  0  0  0  0  0
  -29.8500   46.0048   11.2110 C   0  0  0  0  0  0  0  0  0  0  0  0
  -29.3934   45.8043   12.5144 C   0  0  0  0  0  0  0  0  0  0  0  0
  -30.2490   43.1519    6.2453 C   0  0  0  0  0  0  0  0  0  0  0  0
  -31.2147   44.2562    6.6934 C   0  0  1  0  0  0  0  0  0  0  0  0
  -32.4491   44.2959    5.8394 C   0  0  0  0  0  0  0  0  0  0  0  0
  -32.4631   44.9330    8.6960 N   0  0  0  0  0  0  0  0  0  0  0  0
  -31.7216   46.3690    9.2416 S   0  0  2  0  0  6  0  0  0  0  0  0
  -32.7222   47.5100    9.2419 O   0  0  0  0  0  0  0  0  0  0  0  0
  -30.5274   46.6955    8.3906 O   0  0  0  0  0  0  0  0  0  0  0  0
  -31.1871   46.1179   10.8882 C   0  0  0  0  0  0  0  0  0  0  0  0
  -28.0050   45.7031   12.7300 N   0  0  0  0  0  0  0  0  0  0  0  0
  -26.9918   45.5630   11.7809 C   0  0  0  0  0  0  0  0  0  0  0  0
  -27.2812   45.4451   10.5760 O   0  0  0  0  0  0  0  0  0  0  0  0
  -25.5289   45.5462   12.1446 C   0  0  0  0  0  0  0  0  0  0  0  0
  -24.7235   45.1331   11.0354 N   0  0  0  0  0  0  0  0  0  0  0  0
  -24.0515   43.8942   10.8740 C   0  0  0  0  0  0  0  0  0  0  0  0
  -24.1412   42.8925   11.6254 O   0  0  0  0  0  0  0  0  0  0  0  0
  -23.2214   43.9872    9.6593 C   0  0  0  0  0  0  0  0  0  0  0  0
  -23.6431   45.2123    9.0063 N   0  0  0  0  0  0  0  0  0  0  0  0
  -24.4696   45.9491    9.8773 C   0  0  0  0  0  0  0  0  0  0  0  0
  -24.9268   47.1170    9.7093 O   0  0  0  0  0  0  0  0  0  0  0  0
  -30.3616   45.7242   13.4747 C   0  0  0  0  0  0  0  0  0  0  0  0
  -31.7349   45.8363   13.1733 C   0  0  0  0  0  0  0  0  0  0  0  0
  -32.1440   46.0336   11.8754 C   0  0  0  0  0  0  0  0  0  0  0  0
  -33.9782   46.1941   11.3933 Br  0  0  0  0  0  0  0  0  0  0  0  0
  2  1  1  0
  1  8  1  0
  9  2  1  0
  3  7  1  0
  9  3  1  0
  4  5  2  0
 13  4  1  0
  5 14  1  0
  5 25  1  0
  7  6  1  6
  7  8  1  0
 10  9  1  6
 10 11  2  0
 10 12  2  0
 10 13  1  0
 13 27  2  0
 14 15  1  0
 15 16  2  0
 15 17  1  0
 17 18  1  0
 18 19  1  0
 18 23  1  0
 19 20  2  0
 19 21  1  0
 21 22  1  0
 22 23  1  0
 23 24  2  0
 25 26  2  0
 26 27  1  0
 27 28  1  0
M  END
$$$$
