
     RDKit          3D

 28 30  0  0  0  0  0  0  0  0999 V2000
  -33.2328   43.3748    6.1269 C   0  0  0  0  0  0  0  0  0  0  0  0
  -33.0660   44.8342    6.4988 C   0  0  0  0  0  0  0  0  0  0  0  0
  -31.8586   43.7525    8.2726 C   0  0  0  0  0  0  0  0  0  0  0  0
  -29.6282   46.4044    9.9099 C   0  0  0  0  0  0  0  0  0  0  0  0
  -29.2099   46.6041   11.2262 C   0  0  0  0  0  0  0  0  0  0  0  0
  -30.5003   41.7734    7.8760 C   0  0  0  0  0  0  0  0  0  0  0  0
  -31.0492   43.0471    7.2207 C   0  0  1  0  0  0  0  0  0  0  0  0
  -31.8638   42.7368    5.9981 C   0  0  0  0  0  0  0  0  0  0  0  0
  -32.4651   44.9692    7.7927 N   0  0  0  0  0  0  0  0  0  0  0  0
  -31.4211   46.3173    7.8381 S   0  0  2  0  0  6  0  0  0  0  0  0
  -32.1480   47.5615    7.3620 O   0  0  0  0  0  0  0  0  0  0  0  0
  -30.1949   46.0558    7.0104 O   0  0  0  0  0  0  0  0  0  0  0  0
  -30.9341   46.5773    9.4980 C   0  0  0  0  0  0  0  0  0  0  0  0
  -27.8512   46.3986   11.5360 N   0  0  0  0  0  0  0  0  0  0  0  0
  -26.7393   46.5948   10.7160 C   0  0  0  0  0  0  0  0  0  0  0  0
  -26.8958   46.9100    9.5220 O   0  0  0  0  0  0  0  0  0  0  0  0
  -25.3232   46.4420   11.2100 C   0  0  0  0  0  0  0  0  0  0  0  0
  -24.7470   45.2112   10.7597 N   0  0  0  0  0  0  0  0  0  0  0  0
  -24.7951   43.9504   11.4082 C   0  0  0  0  0  0  0  0  0  0  0  0
  -25.4547   43.6646   12.4375 O   0  0  0  0  0  0  0  0  0  0  0  0
  -23.9282   43.0244   10.6570 C   0  0  0  0  0  0  0  0  0  0  0  0
  -23.5994   43.7258    9.4302 N   0  0  0  0  0  0  0  0  0  0  0  0
  -24.0057   45.0708    9.5341 C   0  0  0  0  0  0  0  0  0  0  0  0
  -23.7806   46.0135    8.7205 O   0  0  0  0  0  0  0  0  0  0  0  0
  -30.1831   46.9883   12.1045 C   0  0  0  0  0  0  0  0  0  0  0  0
  -31.5250   47.1724   11.7111 C   0  0  0  0  0  0  0  0  0  0  0  0
  -31.8968   46.9653   10.4036 C   0  0  0  0  0  0  0  0  0  0  0  0
  -33.6873   47.1940    9.7998 Br  0  0  0  0  0  0  0  0  0  0  0  0
  2  1  1  0
  1  8  1  0
  9  2  1  0
  3  7  1  0
  9  3  1  0
  4  5  2  0
 13  4  1  0
  5 14  1  0
  5 25  1  0
  7  6  1  1
  7  8  1  0
 10  9  1  1
 10 11  2  0
 10 12  2  0
 10 13  1  0
 13 27  2  0
 14 15  1  0
 15 16  2  0
 15 17  1  0
 17 18  1  0
 18 19  1  0
 18 23  1  0
 19 20  2  0
 19 21  1  0
 21 22  1  0
 22 23  1  0
 23 24  2  0
 25 26  2  0
 26 27  1  0
 27 28  1  0
M  END
$$$$
