
     RDKit          3D

 28 30  0  0  0  0  0  0  0  0999 V2000
  -33.9299   43.4292    5.6245 C   0  0  0  0  0  0  0  0  0  0  0  0
  -33.9002   44.3219    6.8486 C   0  0  0  0  0  0  0  0  0  0  0  0
  -31.8458   43.1016    7.1024 C   0  0  0  0  0  0  0  0  0  0  0  0
  -30.0662   45.0611   10.2186 C   0  0  0  0  0  0  0  0  0  0  0  0
  -29.4437   44.6806   11.4082 C   0  0  0  0  0  0  0  0  0  0  0  0
  -30.4528   42.5277    5.1921 C   0  0  0  0  0  0  0  0  0  0  0  0
  -31.4704   43.5483    5.7172 C   0  0  1  0  0  0  0  0  0  0  0  0
  -32.6673   43.6542    4.8166 C   0  0  0  0  0  0  0  0  0  0  0  0
  -32.8248   43.9588    7.7232 N   0  0  0  0  0  0  0  0  0  0  0  0
  -32.1520   45.3411    8.4622 S   0  0  2  0  0  6  0  0  0  0  0  0
  -33.2412   46.3475    8.7848 O   0  0  0  0  0  0  0  0  0  0  0  0
  -31.0999   45.9463    7.5769 O   0  0  0  0  0  0  0  0  0  0  0  0
  -31.4066   44.8500    9.9666 C   0  0  0  0  0  0  0  0  0  0  0  0
  -28.0684   44.9452   11.5593 N   0  0  0  0  0  0  0  0  0  0  0  0
  -27.4349   46.1830   11.6763 C   0  0  0  0  0  0  0  0  0  0  0  0
  -28.1112   47.2279   11.6918 O   0  0  0  0  0  0  0  0  0  0  0  0
  -25.9385   46.3271   11.7879 C   0  0  0  0  0  0  0  0  0  0  0  0
  -25.2717   45.6608   10.7103 N   0  0  0  0  0  0  0  0  0  0  0  0
  -24.7252   44.3517   10.7146 C   0  0  0  0  0  0  0  0  0  0  0  0
  -24.8344   43.4998   11.6303 O   0  0  0  0  0  0  0  0  0  0  0  0
  -23.9996   44.1625    9.4454 C   0  0  0  0  0  0  0  0  0  0  0  0
  -24.3702   45.3004    8.6250 N   0  0  0  0  0  0  0  0  0  0  0  0
  -25.0511   46.2477    9.4148 C   0  0  0  0  0  0  0  0  0  0  0  0
  -25.4193   47.4121    9.0834 O   0  0  0  0  0  0  0  0  0  0  0  0
  -30.2494   44.0749   12.3302 C   0  0  0  0  0  0  0  0  0  0  0  0
  -31.6220   43.8467   12.0992 C   0  0  0  0  0  0  0  0  0  0  0  0
  -32.1977   44.2369   10.9130 C   0  0  0  0  0  0  0  0  0  0  0  0
  -34.0419   43.9623   10.5309 Br  0  0  0  0  0  0  0  0  0  0  0  0
  2  1  1  0
  1  8  1  0
  9  2  1  0
  3  7  1  0
  9  3  1  0
  4  5  2  0
 13  4  1  0
  5 14  1  0
  5 25  1  0
  7  6  1  6
  7  8  1  0
 10  9  1  6
 10 11  2  0
 10 12  2  0
 10 13  1  0
 13 27  2  0
 14 15  1  0
 15 16  2  0
 15 17  1  0
 17 18  1  0
 18 19  1  0
 18 23  1  0
 19 20  2  0
 19 21  1  0
 21 22  1  0
 22 23  1  0
 23 24  2  0
 25 26  2  0
 26 27  1  0
 27 28  1  0
M  END
$$$$
