
     RDKit          3D

 28 30  0  0  0  0  0  0  0  0999 V2000
  -33.0685   42.6283    8.0575 C   0  0  0  0  0  0  0  0  0  0  0  0
  -33.4271   43.3722    9.3280 C   0  0  0  0  0  0  0  0  0  0  0  0
  -31.0835   43.8669    9.1351 C   0  0  0  0  0  0  0  0  0  0  0  0
  -30.0274   46.4127   10.8916 C   0  0  0  0  0  0  0  0  0  0  0  0
  -28.9714   47.2674   10.5724 C   0  0  0  0  0  0  0  0  0  0  0  0
  -30.0349   44.2788    6.9787 C   0  0  0  0  0  0  0  0  0  0  0  0
  -31.3587   44.3754    7.7476 C   0  0  1  0  0  0  0  0  0  0  0  0
  -32.4527   43.6008    7.0712 C   0  0  0  0  0  0  0  0  0  0  0  0
  -32.2529   43.8741    9.9783 N   0  0  0  0  0  0  0  0  0  0  0  0
  -32.5623   45.3861   10.7046 S   0  0  2  0  0  6  0  0  0  0  0  0
  -32.5822   45.2491   12.2159 O   0  0  0  0  0  0  0  0  0  0  0  0
  -33.8558   45.9550   10.1948 O   0  0  0  0  0  0  0  0  0  0  0  0
  -31.2618   46.4753   10.2774 C   0  0  0  0  0  0  0  0  0  0  0  0
  -27.7533   47.1146   11.2631 N   0  0  0  0  0  0  0  0  0  0  0  0
  -27.0460   45.9387   11.5164 C   0  0  0  0  0  0  0  0  0  0  0  0
  -27.5052   44.8444   11.1409 O   0  0  0  0  0  0  0  0  0  0  0  0
  -25.7227   45.9213   12.2383 C   0  0  0  0  0  0  0  0  0  0  0  0
  -24.6745   45.4438   11.3881 N   0  0  0  0  0  0  0  0  0  0  0  0
  -24.0355   46.1446   10.3331 C   0  0  0  0  0  0  0  0  0  0  0  0
  -24.1963   47.3534   10.0345 O   0  0  0  0  0  0  0  0  0  0  0  0
  -23.1410   45.1989    9.6411 C   0  0  0  0  0  0  0  0  0  0  0  0
  -23.1015   44.0246   10.4923 N   0  0  0  0  0  0  0  0  0  0  0  0
  -24.0948   44.1301   11.4857 C   0  0  0  0  0  0  0  0  0  0  0  0
  -24.4437   43.2535   12.3291 O   0  0  0  0  0  0  0  0  0  0  0  0
  -29.2303   48.1895    9.5983 C   0  0  0  0  0  0  0  0  0  0  0  0
  -30.4821   48.2759    8.9541 C   0  0  0  0  0  0  0  0  0  0  0  0
  -31.4974   47.4147    9.2978 C   0  0  0  0  0  0  0  0  0  0  0  0
  -33.2116   47.4717    8.4727 Br  0  0  0  0  0  0  0  0  0  0  0  0
  2  1  1  0
  1  8  1  0
  9  2  1  0
  3  7  1  0
  9  3  1  0
  4  5  2  0
 13  4  1  0
  5 14  1  0
  5 25  1  0
  7  6  1  6
  7  8  1  0
 10  9  1  6
 10 11  2  0
 10 12  2  0
 10 13  1  0
 13 27  2  0
 14 15  1  0
 15 16  2  0
 15 17  1  0
 17 18  1  0
 18 19  1  0
 18 23  1  0
 19 20  2  0
 19 21  1  0
 21 22  1  0
 22 23  1  0
 23 24  2  0
 25 26  2  0
 26 27  1  0
 27 28  1  0
M  END
$$$$
