
     RDKit          3D

 28 30  0  0  0  0  0  0  0  0999 V2000
  -34.1872   45.1648   12.9231 C   0  0  0  0  0  0  0  0  0  0  0  0
  -33.2380   45.3730   11.7604 C   0  0  0  0  0  0  0  0  0  0  0  0
  -35.1656   46.6048   11.0246 C   0  0  0  0  0  0  0  0  0  0  0  0
  -30.2692   46.1696    9.7078 C   0  0  0  0  0  0  0  0  0  0  0  0
  -29.2054   45.4372    9.1791 C   0  0  0  0  0  0  0  0  0  0  0  0
  -36.5187   47.9088   12.5698 C   0  0  0  0  0  0  0  0  0  0  0  0
  -35.1050   47.3698   12.3170 C   0  0  1  0  0  0  0  0  0  0  0  0
  -34.6237   46.5157   13.4543 C   0  0  0  0  0  0  0  0  0  0  0  0
  -33.9022   46.0117   10.6630 N   0  0  0  0  0  0  0  0  0  0  0  0
  -32.8485   47.0854    9.8591 S   0  0  2  0  0  6  0  0  0  0  0  0
  -32.2519   48.0730   10.8449 O   0  0  0  0  0  0  0  0  0  0  0  0
  -33.5729   47.7957    8.7512 O   0  0  0  0  0  0  0  0  0  0  0  0
  -31.5393   46.1533    9.1681 C   0  0  0  0  0  0  0  0  0  0  0  0
  -27.9497   45.5280    9.8110 N   0  0  0  0  0  0  0  0  0  0  0  0
  -27.6624   45.4596   11.1748 C   0  0  0  0  0  0  0  0  0  0  0  0
  -28.5883   45.3557   12.0003 O   0  0  0  0  0  0  0  0  0  0  0  0
  -26.2563   45.5060   11.7164 C   0  0  0  0  0  0  0  0  0  0  0  0
  -25.3158   45.0048   10.7605 N   0  0  0  0  0  0  0  0  0  0  0  0
  -24.6207   43.7688   10.8035 C   0  0  0  0  0  0  0  0  0  0  0  0
  -24.7971   42.8412   11.6309 O   0  0  0  0  0  0  0  0  0  0  0  0
  -23.6457   43.7618    9.6978 C   0  0  0  0  0  0  0  0  0  0  0  0
  -23.9905   44.9115    8.8827 N   0  0  0  0  0  0  0  0  0  0  0  0
  -24.9244   45.7120    9.5696 C   0  0  0  0  0  0  0  0  0  0  0  0
  -25.3645   46.8501    9.2346 O   0  0  0  0  0  0  0  0  0  0  0  0
  -29.4946   44.6869    8.0747 C   0  0  0  0  0  0  0  0  0  0  0  0
  -30.7832   44.6516    7.5024 C   0  0  0  0  0  0  0  0  0  0  0  0
  -31.8050   45.3882    8.0538 C   0  0  0  0  0  0  0  0  0  0  0  0
  -33.5682   45.3903    7.3369 Br  0  0  0  0  0  0  0  0  0  0  0  0
  2  1  1  0
  1  8  1  0
  9  2  1  0
  3  7  1  0
  9  3  1  0
  4  5  2  0
 13  4  1  0
  5 14  1  0
  5 25  1  0
  7  6  1  1
  7  8  1  0
 10  9  1  1
 10 11  2  0
 10 12  2  0
 10 13  1  0
 13 27  2  0
 14 15  1  0
 15 16  2  0
 15 17  1  0
 17 18  1  0
 18 19  1  0
 18 23  1  0
 19 20  2  0
 19 21  1  0
 21 22  1  0
 22 23  1  0
 23 24  2  0
 25 26  2  0
 26 27  1  0
 27 28  1  0
M  END
$$$$
