
     RDKit          3D

 28 30  0  0  0  0  0  0  0  0999 V2000
  -32.6561   41.8561    6.3824 C   0  0  0  0  0  0  0  0  0  0  0  0
  -32.6204   42.5012    7.7530 C   0  0  0  0  0  0  0  0  0  0  0  0
  -31.0261   43.8430    6.5564 C   0  0  0  0  0  0  0  0  0  0  0  0
  -30.1589   44.8181   10.8019 C   0  0  0  0  0  0  0  0  0  0  0  0
  -29.6689   44.6126   12.0923 C   0  0  0  0  0  0  0  0  0  0  0  0
  -31.3618   44.4573    4.2264 C   0  0  0  0  0  0  0  0  0  0  0  0
  -32.0912   44.0967    5.5267 C   0  0  1  0  0  0  0  0  0  0  0  0
  -32.9942   42.9105    5.3473 C   0  0  0  0  0  0  0  0  0  0  0  0
  -31.5638   43.4653    7.8397 N   0  0  0  0  0  0  0  0  0  0  0  0
  -32.0330   44.7934    8.8016 S   0  0  2  0  0  6  0  0  0  0  0  0
  -33.5462   44.8971    8.8524 O   0  0  0  0  0  0  0  0  0  0  0  0
  -31.4201   46.0605    8.2764 O   0  0  0  0  0  0  0  0  0  0  0  0
  -31.4546   44.5219   10.4300 C   0  0  0  0  0  0  0  0  0  0  0  0
  -28.3284   44.9509   12.3619 N   0  0  0  0  0  0  0  0  0  0  0  0
  -27.3980   45.5419   11.5061 C   0  0  0  0  0  0  0  0  0  0  0  0
  -27.7304   45.8548   10.3480 O   0  0  0  0  0  0  0  0  0  0  0  0
  -25.9767   45.8291   11.9181 C   0  0  0  0  0  0  0  0  0  0  0  0
  -25.0436   45.2586   10.9942 N   0  0  0  0  0  0  0  0  0  0  0  0
  -24.3885   44.0045   11.0967 C   0  0  0  0  0  0  0  0  0  0  0  0
  -24.6019   43.1188   11.9606 O   0  0  0  0  0  0  0  0  0  0  0  0
  -23.4040   43.9200   10.0027 C   0  0  0  0  0  0  0  0  0  0  0  0
  -23.7046   45.0443    9.1362 N   0  0  0  0  0  0  0  0  0  0  0  0
  -24.6190   45.9020    9.7789 C   0  0  0  0  0  0  0  0  0  0  0  0
  -25.0198   47.0381    9.3915 O   0  0  0  0  0  0  0  0  0  0  0  0
  -30.5596   44.0912   12.9874 C   0  0  0  0  0  0  0  0  0  0  0  0
  -31.8891   43.7792   12.6347 C   0  0  0  0  0  0  0  0  0  0  0  0
  -32.3333   43.9967   11.3517 C   0  0  0  0  0  0  0  0  0  0  0  0
  -34.1123   43.6005   10.8032 Br  0  0  0  0  0  0  0  0  0  0  0  0
  2  1  1  0
  1  8  1  0
  9  2  1  0
  3  7  1  0
  9  3  1  0
  4  5  2  0
 13  4  1  0
  5 14  1  0
  5 25  1  0
  7  6  1  6
  7  8  1  0
 10  9  1  6
 10 11  2  0
 10 12  2  0
 10 13  1  0
 13 27  2  0
 14 15  1  0
 15 16  2  0
 15 17  1  0
 17 18  1  0
 18 19  1  0
 18 23  1  0
 19 20  2  0
 19 21  1  0
 21 22  1  0
 22 23  1  0
 23 24  2  0
 25 26  2  0
 26 27  1  0
 27 28  1  0
M  END
$$$$
