
     RDKit          3D

 28 30  0  0  0  0  0  0  0  0999 V2000
  -32.1902   46.4952    9.8667 C   0  0  0  0  0  0  0  0  0  0  0  0
  -31.4462   46.8960    8.6090 C   0  0  0  0  0  0  0  0  0  0  0  0
  -32.8643   48.8058    8.9494 C   0  0  0  0  0  0  0  0  0  0  0  0
  -28.6219   48.0867    8.7544 C   0  0  0  0  0  0  0  0  0  0  0  0
  -27.5615   48.1349    9.6603 C   0  0  0  0  0  0  0  0  0  0  0  0
  -33.3421   49.6658   11.1746 C   0  0  0  0  0  0  0  0  0  0  0  0
  -32.3005   48.9111   10.3388 C   0  0  1  0  0  0  0  0  0  0  0  0
  -31.9890   47.5635   10.9231 C   0  0  0  0  0  0  0  0  0  0  0  0
  -31.9986   48.0916    8.0444 N   0  0  0  0  0  0  0  0  0  0  0  0
  -30.7727   49.0621    7.3627 S   0  0  2  0  0  6  0  0  0  0  0  0
  -31.2894   50.4684    7.1203 O   0  0  0  0  0  0  0  0  0  0  0  0
  -30.2649   48.4445    6.0909 O   0  0  0  0  0  0  0  0  0  0  0  0
  -29.4526   49.1606    8.5063 C   0  0  0  0  0  0  0  0  0  0  0  0
  -26.7767   46.9783    9.8356 N   0  0  0  0  0  0  0  0  0  0  0  0
  -26.6818   45.8645    9.0004 C   0  0  0  0  0  0  0  0  0  0  0  0
  -27.2848   45.8513    7.9115 O   0  0  0  0  0  0  0  0  0  0  0  0
  -25.8680   44.6458    9.3540 C   0  0  0  0  0  0  0  0  0  0  0  0
  -25.7871   44.4700   10.7725 N   0  0  0  0  0  0  0  0  0  0  0  0
  -26.8583   44.4728   11.7025 C   0  0  0  0  0  0  0  0  0  0  0  0
  -28.0833   44.5127   11.4306 O   0  0  0  0  0  0  0  0  0  0  0  0
  -26.2788   44.4203   13.0570 C   0  0  0  0  0  0  0  0  0  0  0  0
  -24.8719   44.1284   12.8550 N   0  0  0  0  0  0  0  0  0  0  0  0
  -24.5566   44.2565   11.4879 C   0  0  0  0  0  0  0  0  0  0  0  0
  -23.4138   44.2003   10.9475 O   0  0  0  0  0  0  0  0  0  0  0  0
  -27.3856   49.3278   10.3024 C   0  0  0  0  0  0  0  0  0  0  0  0
  -28.2193   50.4412   10.0683 C   0  0  0  0  0  0  0  0  0  0  0  0
  -29.2541   50.3527    9.1672 C   0  0  0  0  0  0  0  0  0  0  0  0
  -30.4192   51.8122    8.7997 Br  0  0  0  0  0  0  0  0  0  0  0  0
  2  1  1  0
  1  8  1  0
  9  2  1  0
  3  7  1  0
  9  3  1  0
  4  5  2  0
 13  4  1  0
  5 14  1  0
  5 25  1  0
  7  6  1  1
  7  8  1  0
 10  9  1  1
 10 11  2  0
 10 12  2  0
 10 13  1  0
 13 27  2  0
 14 15  1  0
 15 16  2  0
 15 17  1  0
 17 18  1  0
 18 19  1  0
 18 23  1  0
 19 20  2  0
 19 21  1  0
 21 22  1  0
 22 23  1  0
 23 24  2  0
 25 26  2  0
 26 27  1  0
 27 28  1  0
M  END
$$$$
