
     RDKit          3D

 28 30  0  0  0  0  0  0  0  0999 V2000
  -30.3369   51.3312    8.0011 C   0  0  0  0  0  0  0  0  0  0  0  0
  -30.3541   49.8164    8.0359 C   0  0  0  0  0  0  0  0  0  0  0  0
  -31.3882   50.2531    5.9112 C   0  0  0  0  0  0  0  0  0  0  0  0
  -29.1021   46.2870    8.1972 C   0  0  0  0  0  0  0  0  0  0  0  0
  -28.9843   45.3881    9.2581 C   0  0  0  0  0  0  0  0  0  0  0  0
  -30.6405   52.0662    4.4716 C   0  0  0  0  0  0  0  0  0  0  0  0
  -30.1848   51.0801    5.5546 C   0  0  1  0  0  0  0  0  0  0  0  0
  -29.6158   51.7898    6.7492 C   0  0  0  0  0  0  0  0  0  0  0  0
  -31.1188   49.2861    6.9461 N   0  0  0  0  0  0  0  0  0  0  0  0
  -30.4246   47.8400    6.3661 S   0  0  2  0  0  6  0  0  0  0  0  0
  -29.0191   48.0993    5.8559 O   0  0  0  0  0  0  0  0  0  0  0  0
  -31.2886   47.2401    5.2935 O   0  0  0  0  0  0  0  0  0  0  0  0
  -30.3168   46.7114    7.6983 C   0  0  0  0  0  0  0  0  0  0  0  0
  -27.6932   45.0229    9.6870 N   0  0  0  0  0  0  0  0  0  0  0  0
  -26.4735   45.2582    9.0514 C   0  0  0  0  0  0  0  0  0  0  0  0
  -26.4358   45.9461    8.0146 O   0  0  0  0  0  0  0  0  0  0  0  0
  -25.1661   44.7109    9.5650 C   0  0  0  0  0  0  0  0  0  0  0  0
  -25.0680   44.8510   10.9864 N   0  0  0  0  0  0  0  0  0  0  0  0
  -25.4733   43.9160   11.9733 C   0  0  0  0  0  0  0  0  0  0  0  0
  -25.8831   42.7467   11.7708 O   0  0  0  0  0  0  0  0  0  0  0  0
  -25.3286   44.5611   13.2910 C   0  0  0  0  0  0  0  0  0  0  0  0
  -24.5913   45.7840   13.0342 N   0  0  0  0  0  0  0  0  0  0  0  0
  -24.5216   46.0082   11.6450 C   0  0  0  0  0  0  0  0  0  0  0  0
  -24.0687   47.0267   11.0461 O   0  0  0  0  0  0  0  0  0  0  0  0
  -30.1613   44.9408    9.7881 C   0  0  0  0  0  0  0  0  0  0  0  0
  -31.4165   45.3577    9.2981 C   0  0  0  0  0  0  0  0  0  0  0  0
  -31.4896   46.2453    8.2504 C   0  0  0  0  0  0  0  0  0  0  0  0
  -33.1462   46.8524    7.5366 Br  0  0  0  0  0  0  0  0  0  0  0  0
  2  1  1  0
  1  8  1  0
  9  2  1  0
  3  7  1  0
  9  3  1  0
  4  5  2  0
 13  4  1  0
  5 14  1  0
  5 25  1  0
  7  6  1  6
  7  8  1  0
 10  9  1  1
 10 11  2  0
 10 12  2  0
 10 13  1  0
 13 27  2  0
 14 15  1  0
 15 16  2  0
 15 17  1  0
 17 18  1  0
 18 19  1  0
 18 23  1  0
 19 20  2  0
 19 21  1  0
 21 22  1  0
 22 23  1  0
 23 24  2  0
 25 26  2  0
 26 27  1  0
 27 28  1  0
M  END
$$$$
