
     RDKit          3D

 28 30  0  0  0  0  0  0  0  0999 V2000
  -34.1915   42.9787    7.5191 C   0  0  0  0  0  0  0  0  0  0  0  0
  -33.4793   44.2647    7.8868 C   0  0  0  0  0  0  0  0  0  0  0  0
  -31.6432   42.9001    7.1516 C   0  0  0  0  0  0  0  0  0  0  0  0
  -29.4974   46.1866    9.2382 C   0  0  0  0  0  0  0  0  0  0  0  0
  -29.0220   46.8943   10.3430 C   0  0  0  0  0  0  0  0  0  0  0  0
  -31.8563   41.3714    5.2710 C   0  0  0  0  0  0  0  0  0  0  0  0
  -32.3892   42.6813    5.8652 C   0  0  1  0  0  0  0  0  0  0  0  0
  -33.8748   42.6318    6.0779 C   0  0  0  0  0  0  0  0  0  0  0  0
  -32.0571   44.0944    7.8451 N   0  0  0  0  0  0  0  0  0  0  0  0
  -31.2937   45.5115    7.2807 S   0  0  2  0  0  6  0  0  0  0  0  0
  -32.2844   46.3763    6.5233 O   0  0  0  0  0  0  0  0  0  0  0  0
  -30.1123   45.1609    6.4214 O   0  0  0  0  0  0  0  0  0  0  0  0
  -30.7316   46.4197    8.6662 C   0  0  0  0  0  0  0  0  0  0  0  0
  -27.7459   46.5735   10.8459 N   0  0  0  0  0  0  0  0  0  0  0  0
  -26.5098   46.7052   10.2119 C   0  0  0  0  0  0  0  0  0  0  0  0
  -26.4532   47.1292    9.0430 O   0  0  0  0  0  0  0  0  0  0  0  0
  -25.2064   46.3531   10.8827 C   0  0  0  0  0  0  0  0  0  0  0  0
  -25.1831   44.9781   11.2809 N   0  0  0  0  0  0  0  0  0  0  0  0
  -24.3330   43.9542   10.7897 C   0  0  0  0  0  0  0  0  0  0  0  0
  -23.3676   44.0997   10.0004 O   0  0  0  0  0  0  0  0  0  0  0  0
  -24.7834   42.6770   11.3721 C   0  0  0  0  0  0  0  0  0  0  0  0
  -25.7403   43.0463   12.3983 N   0  0  0  0  0  0  0  0  0  0  0  0
  -26.0548   44.4142   12.2777 C   0  0  0  0  0  0  0  0  0  0  0  0
  -26.9353   45.0659   12.9113 O   0  0  0  0  0  0  0  0  0  0  0  0
  -29.8617   47.8510   10.8390 C   0  0  0  0  0  0  0  0  0  0  0  0
  -31.1279   48.1102   10.2743 C   0  0  0  0  0  0  0  0  0  0  0  0
  -31.5598   47.3903    9.1853 C   0  0  0  0  0  0  0  0  0  0  0  0
  -33.2546   47.6840    8.3705 Br  0  0  0  0  0  0  0  0  0  0  0  0
  2  1  1  0
  1  8  1  0
  9  2  1  0
  3  7  1  0
  9  3  1  0
  4  5  2  0
 13  4  1  0
  5 14  1  0
  5 25  1  0
  7  6  1  1
  7  8  1  0
 10  9  1  1
 10 11  2  0
 10 12  2  0
 10 13  1  0
 13 27  2  0
 14 15  1  0
 15 16  2  0
 15 17  1  0
 17 18  1  0
 18 19  1  0
 18 23  1  0
 19 20  2  0
 19 21  1  0
 21 22  1  0
 22 23  1  0
 23 24  2  0
 25 26  2  0
 26 27  1  0
 27 28  1  0
M  END
$$$$
