
     RDKit          3D

 34 38  0  0  0  0  0  0  0  0999 V2000
   40.2488   18.3309    7.0060 C   0  0  0  0  0  0  0  0  0  0  0  0
   38.5169   20.1733    8.6255 C   0  0  0  0  0  0  0  0  0  0  0  0
   36.2686   20.6897    7.8505 C   0  0  0  0  0  0  0  0  0  0  0  0
   36.6579   21.9819    7.5741 C   0  0  0  0  0  0  0  0  0  0  0  0
   37.9443   22.3944    7.8049 C   0  0  0  0  0  0  0  0  0  0  0  0
   38.8427   21.4705    8.3260 C   0  0  0  0  0  0  0  0  0  0  0  0
   43.4398   14.6192    8.1414 C   0  0  0  0  0  0  0  0  0  0  0  0
   42.6992   15.4916    7.2252 C   0  0  0  0  0  0  0  0  0  0  0  0
   42.6161   15.0351    6.0143 O   0  0  0  0  0  0  0  0  0  0  0  0
   42.0625   16.7303    7.4620 N   0  0  0  0  0  0  0  0  0  0  0  0
   40.8097   16.9267    6.7402 C   0  0  1  0  0  0  0  0  0  0  0  0
   40.4085   18.7377    8.3598 N   0  0  0  0  0  0  0  0  0  0  0  0
   39.4167   19.2151    9.2658 C   0  0  0  0  0  0  0  0  0  0  0  0
   37.1872   19.8003    8.3688 C   0  0  0  0  0  0  0  0  0  0  0  0
   40.2542   21.9182    8.4569 C   0  0  0  0  0  0  0  0  0  0  0  0
   40.5735   21.7102    9.8339 O   0  0  0  0  0  0  0  0  0  0  0  0
   41.7643   18.6586    8.8775 C   0  0  0  0  0  0  0  0  0  0  0  0
   42.2088   19.5897    9.8001 C   0  0  0  0  0  0  0  0  0  0  0  0
   43.5135   19.5244   10.2803 C   0  0  0  0  0  0  0  0  0  0  0  0
   44.3195   18.5216    9.8079 C   0  0  0  0  0  0  0  0  0  0  0  0
   43.8729   17.5871    8.8841 C   0  0  0  0  0  0  0  0  0  0  0  0
   42.5933   17.6315    8.4046 C   0  0  0  0  0  0  0  0  0  0  0  0
   44.0253   20.4543   11.2653 C   0  0  0  0  0  0  0  0  0  0  0  0
   43.3129   21.5531   11.7281 C   0  0  0  0  0  0  0  0  0  0  0  0
   43.9003   22.3609   12.6321 N   0  0  0  0  0  0  0  0  0  0  0  0
   45.1374   22.1306   13.0875 C   0  0  0  0  0  0  0  0  0  0  0  0
   45.8745   21.0694   12.6662 N   0  0  0  0  0  0  0  0  0  0  0  0
   45.2955   20.2545   11.7607 C   0  0  0  0  0  0  0  0  0  0  0  0
   45.7223   23.0416   14.0597 C   0  0  0  0  0  0  0  0  0  0  0  0
   45.0146   24.2110   14.4751 N   0  0  0  0  0  0  0  0  0  0  0  0
   46.8620   22.7913   14.5351 O   0  0  0  0  0  0  0  0  0  0  0  0
   39.7319   15.9569    7.1224 C   0  0  1  0  0  0  0  0  0  0  0  0
   39.4853   14.7960    6.2819 C   0  0  0  0  0  0  0  0  0  0  0  0
   40.1077   14.6458    7.4813 C   0  0  0  0  0  0  0  0  0  0  0  0
  1 11  1  0
  1 12  1  6
  2  6  1  0
 13  2  1  0
  2 14  2  0
  3  4  2  0
 14  3  1  0
  5  4  1  0
  6  5  2  0
  6 15  1  0
  7  8  1  6
  8  9  2  0
 10  8  1  0
 11 10  1  1
 10 22  1  0
 11 32  1  0
 13 12  1  6
 12 17  1  0
 15 16  1  6
 17 18  2  0
 17 22  1  0
 18 19  1  0
 19 20  2  0
 19 23  1  0
 20 21  1  0
 21 22  2  0
 23 24  2  0
 23 28  1  0
 24 25  1  0
 25 26  2  0
 26 27  1  0
 26 29  1  0
 27 28  2  0
 29 30  1  0
 29 31  2  0
 32 33  1  6
 32 34  1  0
 33 34  2  0
M  END
$$$$
