
     RDKit          3D

 34 38  0  0  0  0  0  0  0  0999 V2000
   42.1478   16.7289    9.7701 C   0  0  0  0  0  0  0  0  0  0  0  0
   41.2097   17.6891   12.4261 C   0  0  0  0  0  0  0  0  0  0  0  0
   42.0682   16.4325   14.3383 C   0  0  0  0  0  0  0  0  0  0  0  0
   42.9687   17.4251   14.6182 C   0  0  0  0  0  0  0  0  0  0  0  0
   42.9870   18.5188   13.8242 C   0  0  0  0  0  0  0  0  0  0  0  0
   42.1185   18.6747   12.7252 C   0  0  0  0  0  0  0  0  0  0  0  0
   40.1295   15.5524    5.3562 C   0  0  0  0  0  0  0  0  0  0  0  0
   40.9545   15.4310    6.5683 C   0  0  0  0  0  0  0  0  0  0  0  0
   41.3996   14.2387    6.7844 O   0  0  0  0  0  0  0  0  0  0  0  0
   41.2941   16.4364    7.4863 N   0  0  0  0  0  0  0  0  0  0  0  0
   42.4103   16.2448    8.3884 C   0  0  1  0  0  0  0  0  0  0  0  0
   40.9560   17.5061    9.9775 N   0  0  0  0  0  0  0  0  0  0  0  0
   40.2955   17.6846   11.2536 C   0  0  0  0  0  0  0  0  0  0  0  0
   41.2202   16.5686   13.2752 C   0  0  0  0  0  0  0  0  0  0  0  0
   42.1584   19.9402   11.9649 C   0  0  0  0  0  0  0  0  0  0  0  0
   42.6566   21.0380   12.5815 O   0  0  0  0  0  0  0  0  0  0  0  0
   40.3711   18.1542    8.8191 C   0  0  0  0  0  0  0  0  0  0  0  0
   39.6591   19.2957    8.9869 C   0  0  0  0  0  0  0  0  0  0  0  0
   39.1062   19.9018    7.8566 C   0  0  0  0  0  0  0  0  0  0  0  0
   39.2687   19.3655    6.5717 C   0  0  0  0  0  0  0  0  0  0  0  0
   39.9930   18.2118    6.4285 C   0  0  0  0  0  0  0  0  0  0  0  0
   40.5273   17.6300    7.5454 C   0  0  0  0  0  0  0  0  0  0  0  0
   38.3247   21.1239    7.9665 C   0  0  0  0  0  0  0  0  0  0  0  0
   38.5378   22.0311    8.9784 C   0  0  0  0  0  0  0  0  0  0  0  0
   37.8388   23.1679    9.1071 N   0  0  0  0  0  0  0  0  0  0  0  0
   36.8839   23.4524    8.2193 C   0  0  0  0  0  0  0  0  0  0  0  0
   36.6489   22.5910    7.2200 N   0  0  0  0  0  0  0  0  0  0  0  0
   37.3269   21.4350    7.0503 C   0  0  0  0  0  0  0  0  0  0  0  0
   36.1052   24.6992    8.3443 C   0  0  0  0  0  0  0  0  0  0  0  0
   36.5148   25.6987    9.2575 N   0  0  0  0  0  0  0  0  0  0  0  0
   35.0800   24.8897    7.6507 O   0  0  0  0  0  0  0  0  0  0  0  0
   43.6535   16.9762    7.8621 C   0  0  1  0  0  0  0  0  0  0  0  0
   44.3149   17.9529    8.7444 C   0  0  0  0  0  0  0  0  0  0  0  0
   44.9460   16.7556    8.4212 C   0  0  0  0  0  0  0  0  0  0  0  0
 11  1  1  1
 12  1  1  0
  2  6  1  0
 13  2  1  0
  2 14  2  0
  3  4  2  0
 14  3  1  0
  5  4  1  0
  6  5  2  0
  6 15  1  0
  8  7  1  0
  8  9  2  0
 10  8  1  0
 11 10  1  0
 10 22  1  0
 11 32  1  0
 12 13  1  0
 12 17  1  0
 15 16  1  0
 17 18  2  0
 17 22  1  0
 18 19  1  0
 19 20  2  0
 19 23  1  0
 20 21  1  0
 21 22  2  0
 23 24  2  0
 23 28  1  0
 24 25  1  0
 25 26  2  0
 26 27  1  0
 26 29  1  0
 27 28  2  0
 29 30  1  0
 29 31  2  0
 32 33  1  1
 32 34  1  0
 33 34  2  0
M  END
$$$$
