
     RDKit          3D

 34 38  0  0  0  0  0  0  0  0999 V2000
   41.9881   16.9323    9.6688 C   0  0  0  0  0  0  0  0  0  0  0  0
   40.7923   17.9574   12.2455 C   0  0  0  0  0  0  0  0  0  0  0  0
   41.6787   16.8537   14.2377 C   0  0  0  0  0  0  0  0  0  0  0  0
   42.3863   17.9761   14.5753 C   0  0  0  0  0  0  0  0  0  0  0  0
   42.2972   19.0583   13.7703 C   0  0  0  0  0  0  0  0  0  0  0  0
   41.5075   19.0742   12.6030 C   0  0  0  0  0  0  0  0  0  0  0  0
   39.9651   15.6493    5.4194 C   0  0  0  0  0  0  0  0  0  0  0  0
   41.1277   15.7651    6.3135 C   0  0  0  0  0  0  0  0  0  0  0  0
   42.0167   14.8449    6.1424 O   0  0  0  0  0  0  0  0  0  0  0  0
   41.3641   16.7324    7.3022 N   0  0  0  0  0  0  0  0  0  0  0  0
   42.3896   16.5109    8.3000 C   0  0  1  0  0  0  0  0  0  0  0  0
   40.7723   17.6901    9.7916 N   0  0  0  0  0  0  0  0  0  0  0  0
   39.9887   17.8076   11.0035 C   0  0  0  0  0  0  0  0  0  0  0  0
   40.9094   16.8534   13.1081 C   0  0  0  0  0  0  0  0  0  0  0  0
   41.4100   20.3295   11.8310 C   0  0  0  0  0  0  0  0  0  0  0  0
   40.5308   21.2693   12.2520 O   0  0  0  0  0  0  0  0  0  0  0  0
   40.2948   18.3831    8.6102 C   0  0  0  0  0  0  0  0  0  0  0  0
   39.5559   19.5104    8.7559 C   0  0  0  0  0  0  0  0  0  0  0  0
   39.1080   20.1605    7.6038 C   0  0  0  0  0  0  0  0  0  0  0  0
   39.4012   19.6819    6.3194 C   0  0  0  0  0  0  0  0  0  0  0  0
   40.1502   18.5414    6.1987 C   0  0  0  0  0  0  0  0  0  0  0  0
   40.5805   17.9160    7.3368 C   0  0  0  0  0  0  0  0  0  0  0  0
   38.3045   21.3703    7.6887 C   0  0  0  0  0  0  0  0  0  0  0  0
   37.4886   21.6235    8.7669 C   0  0  0  0  0  0  0  0  0  0  0  0
   36.7384   22.7291    8.8786 N   0  0  0  0  0  0  0  0  0  0  0  0
   36.7704   23.6421    7.9058 C   0  0  0  0  0  0  0  0  0  0  0  0
   37.5542   23.4283    6.8402 N   0  0  0  0  0  0  0  0  0  0  0  0
   38.3265   22.3309    6.6844 C   0  0  0  0  0  0  0  0  0  0  0  0
   35.9524   24.8652    8.0121 C   0  0  0  0  0  0  0  0  0  0  0  0
   36.0761   25.8840    7.0386 N   0  0  0  0  0  0  0  0  0  0  0  0
   35.1441   25.0186    8.9564 O   0  0  0  0  0  0  0  0  0  0  0  0
   43.6689   17.2745    7.9291 C   0  0  1  0  0  0  0  0  0  0  0  0
   44.7742   17.2998    8.9026 C   0  0  0  0  0  0  0  0  0  0  0  0
   44.9057   16.6018    7.7060 C   0  0  0  0  0  0  0  0  0  0  0  0
 11  1  1  1
 12  1  1  0
  2  6  1  0
 13  2  1  0
  2 14  2  0
  3  4  2  0
 14  3  1  0
  5  4  1  0
  6  5  2  0
  6 15  1  0
  8  7  1  0
  8  9  2  0
 10  8  1  0
 11 10  1  0
 10 22  1  0
 11 32  1  0
 12 13  1  0
 12 17  1  0
 15 16  1  0
 17 18  2  0
 17 22  1  0
 18 19  1  0
 19 20  2  0
 19 23  1  0
 20 21  1  0
 21 22  2  0
 23 24  2  0
 23 28  1  0
 24 25  1  0
 25 26  2  0
 26 27  1  0
 26 29  1  0
 27 28  2  0
 29 30  1  0
 29 31  2  0
 32 33  1  1
 32 34  1  0
 33 34  2  0
M  END
$$$$
