
     RDKit          3D

 34 38  0  0  0  0  0  0  0  0999 V2000
   40.2794   18.3569    7.1542 C   0  0  0  0  0  0  0  0  0  0  0  0
   38.9194   20.1787    9.1650 C   0  0  0  0  0  0  0  0  0  0  0  0
   37.7718   21.3422    7.3619 C   0  0  0  0  0  0  0  0  0  0  0  0
   37.0669   22.0829    8.2851 C   0  0  0  0  0  0  0  0  0  0  0  0
   37.2614   21.9020    9.6296 C   0  0  0  0  0  0  0  0  0  0  0  0
   38.1902   20.9494   10.0326 C   0  0  0  0  0  0  0  0  0  0  0  0
   43.7017   14.6711    7.4906 C   0  0  0  0  0  0  0  0  0  0  0  0
   42.7225   15.5237    6.8099 C   0  0  0  0  0  0  0  0  0  0  0  0
   42.3361   15.0676    5.6592 O   0  0  0  0  0  0  0  0  0  0  0  0
   42.1370   16.7430    7.2179 N   0  0  0  0  0  0  0  0  0  0  0  0
   40.7849   16.9737    6.7203 C   0  0  1  0  0  0  0  0  0  0  0  0
   40.6570   18.6855    8.4857 N   0  0  0  0  0  0  0  0  0  0  0  0
   39.8261   19.1041    9.5661 C   0  0  0  0  0  0  0  0  0  0  0  0
   38.6844   20.4042    7.7987 C   0  0  0  0  0  0  0  0  0  0  0  0
   38.4580   20.8594   11.4920 C   0  0  0  0  0  0  0  0  0  0  0  0
   38.0267   19.5477   11.8589 O   0  0  0  0  0  0  0  0  0  0  0  0
   42.0782   18.5843    8.7725 C   0  0  0  0  0  0  0  0  0  0  0  0
   42.6692   19.4630    9.6639 C   0  0  0  0  0  0  0  0  0  0  0  0
   44.0340   19.3775    9.9227 C   0  0  0  0  0  0  0  0  0  0  0  0
   44.7495   18.4083    9.2690 C   0  0  0  0  0  0  0  0  0  0  0  0
   44.1563   17.5264    8.3767 C   0  0  0  0  0  0  0  0  0  0  0  0
   42.8163   17.5911    8.1133 C   0  0  0  0  0  0  0  0  0  0  0  0
   44.7015   20.2517   10.8646 C   0  0  0  0  0  0  0  0  0  0  0  0
   44.0311   21.1287   11.7073 C   0  0  0  0  0  0  0  0  0  0  0  0
   44.7603   21.9087   12.5289 N   0  0  0  0  0  0  0  0  0  0  0  0
   46.0974   21.8570   12.5503 C   0  0  0  0  0  0  0  0  0  0  0  0
   46.7991   21.0159   11.7459 N   0  0  0  0  0  0  0  0  0  0  0  0
   46.0782   20.2308   10.9193 C   0  0  0  0  0  0  0  0  0  0  0  0
   46.8319   22.7281   13.4552 C   0  0  0  0  0  0  0  0  0  0  0  0
   48.2530   22.6299   13.5623 N   0  0  0  0  0  0  0  0  0  0  0  0
   46.2037   23.5735   14.1469 O   0  0  0  0  0  0  0  0  0  0  0  0
   39.7792   15.9773    7.2144 C   0  0  1  0  0  0  0  0  0  0  0  0
   38.4845   15.8846    6.5586 C   0  0  0  0  0  0  0  0  0  0  0  0
   39.4161   14.9139    6.3620 C   0  0  0  0  0  0  0  0  0  0  0  0
  1 11  1  0
  1 12  1  6
  2  6  1  0
 13  2  1  0
  2 14  2  0
  3  4  2  0
 14  3  1  0
  5  4  1  0
  6  5  2  0
  6 15  1  0
  7  8  1  6
  8  9  2  0
 10  8  1  0
 11 10  1  1
 10 22  1  0
 11 32  1  0
 13 12  1  6
 12 17  1  0
 15 16  1  6
 17 18  2  0
 17 22  1  0
 18 19  1  0
 19 20  2  0
 19 23  1  0
 20 21  1  0
 21 22  2  0
 23 24  2  0
 23 28  1  0
 24 25  1  0
 25 26  2  0
 26 27  1  0
 26 29  1  0
 27 28  2  0
 29 30  1  0
 29 31  2  0
 32 33  1  6
 32 34  1  0
 33 34  2  0
M  END
$$$$
