
     RDKit          3D

 34 38  0  0  0  0  0  0  0  0999 V2000
   42.1411   17.1716    9.8605 C   0  0  0  0  0  0  0  0  0  0  0  0
   41.0751   17.9443   12.4558 C   0  0  0  0  0  0  0  0  0  0  0  0
   42.3088   16.2977   13.7748 C   0  0  0  0  0  0  0  0  0  0  0  0
   42.7721   17.2777   14.6111 C   0  0  0  0  0  0  0  0  0  0  0  0
   42.3955   18.5543   14.3759 C   0  0  0  0  0  0  0  0  0  0  0  0
   41.5484   18.9122   13.3078 C   0  0  0  0  0  0  0  0  0  0  0  0
   39.9733   15.4114    5.7654 C   0  0  0  0  0  0  0  0  0  0  0  0
   41.0120   15.5198    6.8015 C   0  0  0  0  0  0  0  0  0  0  0  0
   41.7160   14.4486    6.9548 O   0  0  0  0  0  0  0  0  0  0  0  0
   41.3069   16.6230    7.6169 N   0  0  0  0  0  0  0  0  0  0  0  0
   42.4274   16.5668    8.5321 C   0  0  1  0  0  0  0  0  0  0  0  0
   40.9174   17.9150    9.9926 N   0  0  0  0  0  0  0  0  0  0  0  0
   40.2463   18.1891   11.2460 C   0  0  0  0  0  0  0  0  0  0  0  0
   41.4875   16.6293   12.7339 C   0  0  0  0  0  0  0  0  0  0  0  0
   41.1276   20.3221   13.1795 C   0  0  0  0  0  0  0  0  0  0  0  0
   41.6752   21.0623   12.1866 O   0  0  0  0  0  0  0  0  0  0  0  0
   40.3093   18.4223    8.7774 C   0  0  0  0  0  0  0  0  0  0  0  0
   39.5500   19.5441    8.8340 C   0  0  0  0  0  0  0  0  0  0  0  0
   38.9757   20.0137    7.6507 C   0  0  0  0  0  0  0  0  0  0  0  0
   39.1640   19.3623    6.4240 C   0  0  0  0  0  0  0  0  0  0  0  0
   39.9362   18.2313    6.3929 C   0  0  0  0  0  0  0  0  0  0  0  0
   40.4909   17.7837    7.5605 C   0  0  0  0  0  0  0  0  0  0  0  0
   38.1438   21.2072    7.6421 C   0  0  0  0  0  0  0  0  0  0  0  0
   37.3708   21.5588    8.7243 C   0  0  0  0  0  0  0  0  0  0  0  0
   36.5961   22.6527    8.7511 N   0  0  0  0  0  0  0  0  0  0  0  0
   36.5588   23.4539    7.6845 C   0  0  0  0  0  0  0  0  0  0  0  0
   37.2993   23.1420    6.6120 N   0  0  0  0  0  0  0  0  0  0  0  0
   38.0938   22.0519    6.5395 C   0  0  0  0  0  0  0  0  0  0  0  0
   35.7130   24.6626    7.6963 C   0  0  0  0  0  0  0  0  0  0  0  0
   35.0827   25.0714    8.8948 N   0  0  0  0  0  0  0  0  0  0  0  0
   35.5418   25.3382    6.6557 O   0  0  0  0  0  0  0  0  0  0  0  0
   43.6407   17.2946    7.9357 C   0  0  1  0  0  0  0  0  0  0  0  0
   44.5225   18.0445    8.8468 C   0  0  0  0  0  0  0  0  0  0  0  0
   44.9758   16.8862    8.2229 C   0  0  0  0  0  0  0  0  0  0  0  0
 11  1  1  1
 12  1  1  0
  2  6  1  0
 13  2  1  0
  2 14  2  0
  3  4  2  0
 14  3  1  0
  5  4  1  0
  6  5  2  0
  6 15  1  0
  8  7  1  0
  8  9  2  0
 10  8  1  0
 11 10  1  0
 10 22  1  0
 11 32  1  0
 12 13  1  0
 12 17  1  0
 15 16  1  0
 17 18  2  0
 17 22  1  0
 18 19  1  0
 19 20  2  0
 19 23  1  0
 20 21  1  0
 21 22  2  0
 23 24  2  0
 23 28  1  0
 24 25  1  0
 25 26  2  0
 26 27  1  0
 26 29  1  0
 27 28  2  0
 29 30  1  0
 29 31  2  0
 32 33  1  1
 32 34  1  0
 33 34  2  0
M  END
$$$$
