
     RDKit          3D

 34 38  0  0  0  0  0  0  0  0999 V2000
   42.9607   17.6582    9.0835 C   0  0  0  0  0  0  0  0  0  0  0  0
   41.2390   18.1599   11.8069 C   0  0  0  0  0  0  0  0  0  0  0  0
   41.9407   16.4837   13.4412 C   0  0  0  0  0  0  0  0  0  0  0  0
   40.6667   16.3953   13.9348 C   0  0  0  0  0  0  0  0  0  0  0  0
   39.7068   17.1671   13.3781 C   0  0  0  0  0  0  0  0  0  0  0  0
   39.9671   18.0545   12.3144 C   0  0  0  0  0  0  0  0  0  0  0  0
   39.6496   15.2361    6.2313 C   0  0  0  0  0  0  0  0  0  0  0  0
   40.8332   15.4685    7.0737 C   0  0  0  0  0  0  0  0  0  0  0  0
   41.3958   14.3878    7.5001 O   0  0  0  0  0  0  0  0  0  0  0  0
   41.3945   16.6968    7.4546 N   0  0  0  0  0  0  0  0  0  0  0  0
   42.7644   16.7524    7.9201 C   0  0  1  0  0  0  0  0  0  0  0  0
   41.8605   18.5109    9.4438 N   0  0  0  0  0  0  0  0  0  0  0  0
   41.6702   19.1104   10.7480 C   0  0  0  0  0  0  0  0  0  0  0  0
   42.2089   17.3405   12.4107 C   0  0  0  0  0  0  0  0  0  0  0  0
   38.8376   18.7968   11.7189 C   0  0  0  0  0  0  0  0  0  0  0  0
   37.7432   18.0950   11.3406 O   0  0  0  0  0  0  0  0  0  0  0  0
   40.8657   18.7847    8.4244 C   0  0  0  0  0  0  0  0  0  0  0  0
   40.1740   19.9499    8.4687 C   0  0  0  0  0  0  0  0  0  0  0  0
   39.2220   20.1914    7.4758 C   0  0  0  0  0  0  0  0  0  0  0  0
   38.9694   19.2710    6.4493 C   0  0  0  0  0  0  0  0  0  0  0  0
   39.6820   18.1014    6.4260 C   0  0  0  0  0  0  0  0  0  0  0  0
   40.6102   17.8794    7.4061 C   0  0  0  0  0  0  0  0  0  0  0  0
   38.4394   21.4178    7.4685 C   0  0  0  0  0  0  0  0  0  0  0  0
   38.9314   22.5938    7.9856 C   0  0  0  0  0  0  0  0  0  0  0  0
   38.2389   23.7418    7.9916 N   0  0  0  0  0  0  0  0  0  0  0  0
   37.0088   23.7662    7.4747 C   0  0  0  0  0  0  0  0  0  0  0  0
   36.4975   22.6386    6.9621 N   0  0  0  0  0  0  0  0  0  0  0  0
   37.1571   21.4601    6.9340 C   0  0  0  0  0  0  0  0  0  0  0  0
   36.2323   25.0206    7.4716 C   0  0  0  0  0  0  0  0  0  0  0  0
   36.7645   26.1817    8.0795 N   0  0  0  0  0  0  0  0  0  0  0  0
   35.1015   25.0760    6.9361 O   0  0  0  0  0  0  0  0  0  0  0  0
   43.6923   17.2272    6.7926 C   0  0  1  0  0  0  0  0  0  0  0  0
   44.8038   18.1306    7.1367 C   0  0  0  0  0  0  0  0  0  0  0  0
   45.0583   16.8255    6.7266 C   0  0  0  0  0  0  0  0  0  0  0  0
 11  1  1  1
 12  1  1  0
  2  6  1  0
 13  2  1  0
  2 14  2  0
  3  4  2  0
 14  3  1  0
  5  4  1  0
  6  5  2  0
  6 15  1  0
  8  7  1  0
  8  9  2  0
 10  8  1  0
 11 10  1  0
 10 22  1  0
 11 32  1  0
 12 13  1  0
 12 17  1  0
 15 16  1  0
 17 18  2  0
 17 22  1  0
 18 19  1  0
 19 20  2  0
 19 23  1  0
 20 21  1  0
 21 22  2  0
 23 24  2  0
 23 28  1  0
 24 25  1  0
 25 26  2  0
 26 27  1  0
 26 29  1  0
 27 28  2  0
 29 30  1  0
 29 31  2  0
 32 33  1  1
 32 34  1  0
 33 34  2  0
M  END
$$$$
