
     RDKit          3D

 34 38  0  0  0  0  0  0  0  0999 V2000
   40.9451   19.3857    7.8630 C   0  0  0  0  0  0  0  0  0  0  0  0
   40.7256   19.0338   11.1846 C   0  0  0  0  0  0  0  0  0  0  0  0
   38.5787   18.0152   11.7091 C   0  0  0  0  0  0  0  0  0  0  0  0
   39.1807   17.2367   12.6731 C   0  0  0  0  0  0  0  0  0  0  0  0
   40.5263   17.3310   12.9153 C   0  0  0  0  0  0  0  0  0  0  0  0
   41.2639   18.2349   12.1595 C   0  0  0  0  0  0  0  0  0  0  0  0
   40.9809   15.4337    5.5564 C   0  0  0  0  0  0  0  0  0  0  0  0
   41.5776   15.8276    6.8361 C   0  0  0  0  0  0  0  0  0  0  0  0
   42.0078   14.8314    7.5461 O   0  0  0  0  0  0  0  0  0  0  0  0
   41.7617   17.1104    7.3987 N   0  0  0  0  0  0  0  0  0  0  0  0
   40.6089   17.9990    7.2964 C   0  0  1  0  0  0  0  0  0  0  0  0
   41.7408   19.3186    9.0402 N   0  0  0  0  0  0  0  0  0  0  0  0
   41.4972   19.9168   10.3113 C   0  0  0  0  0  0  0  0  0  0  0  0
   39.3429   18.9003   10.9769 C   0  0  0  0  0  0  0  0  0  0  0  0
   42.6960   18.3930   12.5255 C   0  0  0  0  0  0  0  0  0  0  0  0
   43.3116   17.1708   12.1148 O   0  0  0  0  0  0  0  0  0  0  0  0
   42.9633   18.5414    8.9217 C   0  0  0  0  0  0  0  0  0  0  0  0
   44.0960   18.9211    9.6207 C   0  0  0  0  0  0  0  0  0  0  0  0
   45.2714   18.1873    9.4911 C   0  0  0  0  0  0  0  0  0  0  0  0
   45.2574   17.0989    8.6581 C   0  0  0  0  0  0  0  0  0  0  0  0
   44.1210   16.7175    7.9587 C   0  0  0  0  0  0  0  0  0  0  0  0
   42.9555   17.4224    8.0770 C   0  0  0  0  0  0  0  0  0  0  0  0
   46.4788   18.5212   10.2175 C   0  0  0  0  0  0  0  0  0  0  0  0
   47.3123   17.5747   10.7991 C   0  0  0  0  0  0  0  0  0  0  0  0
   48.3995   18.0056   11.4681 N   0  0  0  0  0  0  0  0  0  0  0  0
   48.6894   19.3070   11.5823 C   0  0  0  0  0  0  0  0  0  0  0  0
   47.9060   20.2710   11.0309 N   0  0  0  0  0  0  0  0  0  0  0  0
   46.8148   19.8500   10.3592 C   0  0  0  0  0  0  0  0  0  0  0  0
   49.8748   19.7129   12.3221 C   0  0  0  0  0  0  0  0  0  0  0  0
   50.7216   18.7350   12.9283 N   0  0  0  0  0  0  0  0  0  0  0  0
   50.1509   20.9380   12.4251 O   0  0  0  0  0  0  0  0  0  0  0  0
   39.4021   17.5140    8.0426 C   0  0  1  0  0  0  0  0  0  0  0  0
   38.2043   18.3381    8.0756 C   0  0  0  0  0  0  0  0  0  0  0  0
   38.2356   17.2165    7.3078 C   0  0  0  0  0  0  0  0  0  0  0  0
  1 11  1  0
  1 12  1  6
  2  6  1  0
 13  2  1  0
  2 14  2  0
  3  4  2  0
 14  3  1  0
  5  4  1  0
  6  5  2  0
  6 15  1  0
  7  8  1  6
  8  9  2  0
 10  8  1  0
 11 10  1  1
 10 22  1  0
 11 32  1  0
 13 12  1  6
 12 17  1  0
 15 16  1  6
 17 18  2  0
 17 22  1  0
 18 19  1  0
 19 20  2  0
 19 23  1  0
 20 21  1  0
 21 22  2  0
 23 24  2  0
 23 28  1  0
 24 25  1  0
 25 26  2  0
 26 27  1  0
 26 29  1  0
 27 28  2  0
 29 30  1  0
 29 31  2  0
 32 33  1  1
 32 34  1  0
 33 34  2  0
M  END
$$$$
