
     RDKit          3D

 34 38  0  0  0  0  0  0  0  0999 V2000
   41.5555   18.9203    7.3811 C   0  0  0  0  0  0  0  0  0  0  0  0
   39.9758   20.5251   10.1354 C   0  0  0  0  0  0  0  0  0  0  0  0
   39.4429   21.0172   12.4583 C   0  0  0  0  0  0  0  0  0  0  0  0
   40.5417   21.8443   12.5378 C   0  0  0  0  0  0  0  0  0  0  0  0
   41.3615   22.0321   11.4558 C   0  0  0  0  0  0  0  0  0  0  0  0
   41.0508   21.3634   10.2774 C   0  0  0  0  0  0  0  0  0  0  0  0
   41.1476   14.4841    6.1594 C   0  0  0  0  0  0  0  0  0  0  0  0
   41.9295   15.1874    7.1807 C   0  0  0  0  0  0  0  0  0  0  0  0
   42.9155   14.4946    7.6595 O   0  0  0  0  0  0  0  0  0  0  0  0
   41.7795   16.4904    7.7055 N   0  0  0  0  0  0  0  0  0  0  0  0
   41.6279   17.5431    6.7065 C   0  0  1  0  0  0  0  0  0  0  0  0
   40.7883   18.9042    8.5790 N   0  0  0  0  0  0  0  0  0  0  0  0
   39.6875   19.7356    8.9390 C   0  0  0  0  0  0  0  0  0  0  0  0
   39.1664   20.3682   11.2726 C   0  0  0  0  0  0  0  0  0  0  0  0
   41.8935   21.6778    9.0938 C   0  0  0  0  0  0  0  0  0  0  0  0
   43.1786   21.1403    9.4113 O   0  0  0  0  0  0  0  0  0  0  0  0
   41.1893   17.9110    9.5615 C   0  0  0  0  0  0  0  0  0  0  0  0
   41.0790   18.1897   10.9128 C   0  0  0  0  0  0  0  0  0  0  0  0
   41.4816   17.2454   11.8525 C   0  0  0  0  0  0  0  0  0  0  0  0
   41.9823   16.0562   11.3901 C   0  0  0  0  0  0  0  0  0  0  0  0
   42.0912   15.7764   10.0352 C   0  0  0  0  0  0  0  0  0  0  0  0
   41.6961   16.6891    9.0970 C   0  0  0  0  0  0  0  0  0  0  0  0
   41.3652   17.4706   13.2782 C   0  0  0  0  0  0  0  0  0  0  0  0
   42.3183   18.1453   14.0300 C   0  0  0  0  0  0  0  0  0  0  0  0
   42.1113   18.2770   15.3547 N   0  0  0  0  0  0  0  0  0  0  0  0
   41.0226   17.7793   15.9530 C   0  0  0  0  0  0  0  0  0  0  0  0
   40.0616   17.1121   15.2613 N   0  0  0  0  0  0  0  0  0  0  0  0
   40.2596   16.9746   13.9342 C   0  0  0  0  0  0  0  0  0  0  0  0
   40.8560   17.9476   17.3886 C   0  0  0  0  0  0  0  0  0  0  0  0
   41.8766   18.5724   18.1688 N   0  0  0  0  0  0  0  0  0  0  0  0
   39.8009   17.5370   17.9418 O   0  0  0  0  0  0  0  0  0  0  0  0
   40.3899   17.4113    5.8708 C   0  0  1  0  0  0  0  0  0  0  0  0
   39.3304   18.3985    6.0039 C   0  0  0  0  0  0  0  0  0  0  0  0
   40.1275   18.4026    4.9025 C   0  0  0  0  0  0  0  0  0  0  0  0
  1 11  1  0
  1 12  1  6
  2  6  1  0
 13  2  1  0
  2 14  2  0
  3  4  2  0
 14  3  1  0
  5  4  1  0
  6  5  2  0
  6 15  1  0
  7  8  1  6
  8  9  2  0
 10  8  1  0
 11 10  1  1
 10 22  1  0
 11 32  1  0
 13 12  1  6
 12 17  1  0
 15 16  1  6
 17 18  2  0
 17 22  1  0
 18 19  1  0
 19 20  2  0
 19 23  1  0
 20 21  1  0
 21 22  2  0
 23 24  2  0
 23 28  1  0
 24 25  1  0
 25 26  2  0
 26 27  1  0
 26 29  1  0
 27 28  2  0
 29 30  1  0
 29 31  2  0
 32 33  1  1
 32 34  1  0
 33 34  2  0
M  END
$$$$
