
     RDKit          3D

 34 38  0  0  0  0  0  0  0  0999 V2000
   43.1320   17.7118    8.6717 C   0  0  0  0  0  0  0  0  0  0  0  0
   40.9802   18.1994   11.3677 C   0  0  0  0  0  0  0  0  0  0  0  0
   40.6590   16.1172   12.6062 C   0  0  0  0  0  0  0  0  0  0  0  0
   39.4769   16.5769   13.1217 C   0  0  0  0  0  0  0  0  0  0  0  0
   39.0590   17.8127   12.7681 C   0  0  0  0  0  0  0  0  0  0  0  0
   39.7906   18.6411   11.8934 C   0  0  0  0  0  0  0  0  0  0  0  0
   39.6109   15.3296    6.1231 C   0  0  0  0  0  0  0  0  0  0  0  0
   40.9673   15.5886    6.6303 C   0  0  0  0  0  0  0  0  0  0  0  0
   41.7232   14.5430    6.6688 O   0  0  0  0  0  0  0  0  0  0  0  0
   41.5082   16.8077    7.0666 N   0  0  0  0  0  0  0  0  0  0  0  0
   42.8998   16.8821    7.4592 C   0  0  1  0  0  0  0  0  0  0  0  0
   42.0263   18.4957    9.1515 N   0  0  0  0  0  0  0  0  0  0  0  0
   41.8910   18.9960   10.5036 C   0  0  0  0  0  0  0  0  0  0  0  0
   41.3804   16.9093   11.7576 C   0  0  0  0  0  0  0  0  0  0  0  0
   39.2134   19.9431   11.5026 C   0  0  0  0  0  0  0  0  0  0  0  0
   37.8687   20.0290   11.3682 O   0  0  0  0  0  0  0  0  0  0  0  0
   40.9662   18.8022    8.2101 C   0  0  0  0  0  0  0  0  0  0  0  0
   40.2397   19.9348    8.3752 C   0  0  0  0  0  0  0  0  0  0  0  0
   39.2248   20.2089    7.4556 C   0  0  0  0  0  0  0  0  0  0  0  0
   38.9448   19.3530    6.3814 C   0  0  0  0  0  0  0  0  0  0  0  0
   39.6936   18.2153    6.2359 C   0  0  0  0  0  0  0  0  0  0  0  0
   40.6833   17.9607    7.1455 C   0  0  0  0  0  0  0  0  0  0  0  0
   38.4026   21.4027    7.5785 C   0  0  0  0  0  0  0  0  0  0  0  0
   37.0916   21.4249    7.1626 C   0  0  0  0  0  0  0  0  0  0  0  0
   36.3053   22.5062    7.2644 N   0  0  0  0  0  0  0  0  0  0  0  0
   36.8002   23.6271    7.7930 C   0  0  0  0  0  0  0  0  0  0  0  0
   38.0739   23.6416    8.2090 N   0  0  0  0  0  0  0  0  0  0  0  0
   38.9027   22.5780    8.1267 C   0  0  0  0  0  0  0  0  0  0  0  0
   35.9494   24.8263    7.9141 C   0  0  0  0  0  0  0  0  0  0  0  0
   34.5965   24.7763    7.5046 N   0  0  0  0  0  0  0  0  0  0  0  0
   36.4077   25.8961    8.3767 O   0  0  0  0  0  0  0  0  0  0  0  0
   43.7453   17.4682    6.3194 C   0  0  1  0  0  0  0  0  0  0  0  0
   45.1388   17.8487    6.6079 C   0  0  0  0  0  0  0  0  0  0  0  0
   44.8618   16.7673    5.7771 C   0  0  0  0  0  0  0  0  0  0  0  0
 11  1  1  1
 12  1  1  0
  2  6  1  0
 13  2  1  0
  2 14  2  0
  3  4  2  0
 14  3  1  0
  5  4  1  0
  6  5  2  0
  6 15  1  0
  8  7  1  0
  8  9  2  0
 10  8  1  0
 11 10  1  0
 10 22  1  0
 11 32  1  0
 12 13  1  0
 12 17  1  0
 15 16  1  0
 17 18  2  0
 17 22  1  0
 18 19  1  0
 19 20  2  0
 19 23  1  0
 20 21  1  0
 21 22  2  0
 23 24  2  0
 23 28  1  0
 24 25  1  0
 25 26  2  0
 26 27  1  0
 26 29  1  0
 27 28  2  0
 29 30  1  0
 29 31  2  0
 32 33  1  1
 32 34  1  0
 33 34  2  0
M  END
$$$$
