
     RDKit          3D

 34 38  0  0  0  0  0  0  0  0999 V2000
   42.1335   16.6997    9.7530 C   0  0  0  0  0  0  0  0  0  0  0  0
   41.3630   19.5154   11.4864 C   0  0  0  0  0  0  0  0  0  0  0  0
   39.4891   20.8723   12.2407 C   0  0  0  0  0  0  0  0  0  0  0  0
   39.4206   20.1362   13.4030 C   0  0  0  0  0  0  0  0  0  0  0  0
   40.2921   19.1044   13.6355 C   0  0  0  0  0  0  0  0  0  0  0  0
   41.2458   18.8237   12.6638 C   0  0  0  0  0  0  0  0  0  0  0  0
   41.6296   16.3281    4.7229 C   0  0  0  0  0  0  0  0  0  0  0  0
   42.1702   16.0397    6.0547 C   0  0  0  0  0  0  0  0  0  0  0  0
   43.0973   15.1332    6.0623 O   0  0  0  0  0  0  0  0  0  0  0  0
   41.8459   16.6003    7.3103 N   0  0  0  0  0  0  0  0  0  0  0  0
   42.6220   16.0854    8.4335 C   0  0  1  0  0  0  0  0  0  0  0  0
   41.8140   18.0804    9.6297 N   0  0  0  0  0  0  0  0  0  0  0  0
   42.2911   19.1747   10.4092 C   0  0  0  0  0  0  0  0  0  0  0  0
   40.4477   20.5640   11.2976 C   0  0  0  0  0  0  0  0  0  0  0  0
   42.2449   17.7749   12.9978 C   0  0  0  0  0  0  0  0  0  0  0  0
   41.4693   16.5987   13.2349 O   0  0  0  0  0  0  0  0  0  0  0  0
   40.8731   18.4093    8.5719 C   0  0  0  0  0  0  0  0  0  0  0  0
   39.9730   19.4468    8.7436 C   0  0  0  0  0  0  0  0  0  0  0  0
   39.0595   19.7481    7.7378 C   0  0  0  0  0  0  0  0  0  0  0  0
   39.0895   18.9878    6.5977 C   0  0  0  0  0  0  0  0  0  0  0  0
   39.9932   17.9488    6.4253 C   0  0  0  0  0  0  0  0  0  0  0  0
   40.9017   17.6409    7.3995 C   0  0  0  0  0  0  0  0  0  0  0  0
   38.1128   20.8380    7.8503 C   0  0  0  0  0  0  0  0  0  0  0  0
   37.7331   21.6396    6.7816 C   0  0  0  0  0  0  0  0  0  0  0  0
   36.8581   22.6381    7.0109 N   0  0  0  0  0  0  0  0  0  0  0  0
   36.3541   22.8705    8.2285 C   0  0  0  0  0  0  0  0  0  0  0  0
   36.6938   22.1144    9.3055 N   0  0  0  0  0  0  0  0  0  0  0  0
   37.5695   21.1122    9.0866 C   0  0  0  0  0  0  0  0  0  0  0  0
   35.4169   23.9676    8.4167 C   0  0  0  0  0  0  0  0  0  0  0  0
   34.8648   24.6510    7.2902 N   0  0  0  0  0  0  0  0  0  0  0  0
   35.0939   24.3124    9.5848 O   0  0  0  0  0  0  0  0  0  0  0  0
   44.0892   16.3811    8.3422 C   0  0  1  0  0  0  0  0  0  0  0  0
   45.0344   15.5279    9.0447 C   0  0  0  0  0  0  0  0  0  0  0  0
   44.9213   15.4460    7.6923 C   0  0  0  0  0  0  0  0  0  0  0  0
  1 11  1  0
  1 12  1  6
  2  6  1  0
 13  2  1  0
  2 14  2  0
  3  4  2  0
 14  3  1  0
  5  4  1  0
  6  5  2  0
  6 15  1  0
  7  8  1  6
  8  9  2  0
 10  8  1  0
 11 10  1  6
 10 22  1  0
 11 32  1  0
 13 12  1  6
 12 17  1  0
 15 16  1  6
 17 18  2  0
 17 22  1  0
 18 19  1  0
 19 20  2  0
 19 23  1  0
 20 21  1  0
 21 22  2  0
 23 24  2  0
 23 28  1  0
 24 25  1  0
 25 26  2  0
 26 27  1  0
 26 29  1  0
 27 28  2  0
 29 30  1  0
 29 31  2  0
 32 33  1  1
 32 34  1  0
 33 34  2  0
M  END
$$$$
