
     RDKit          3D

 34 38  0  0  0  0  0  0  0  0999 V2000
   42.4817   16.8415    9.4476 C   0  0  0  0  0  0  0  0  0  0  0  0
   41.1580   18.8404   11.9120 C   0  0  0  0  0  0  0  0  0  0  0  0
   42.9551   20.4308   12.3741 C   0  0  0  0  0  0  0  0  0  0  0  0
   42.1365   21.1546   13.1989 C   0  0  0  0  0  0  0  0  0  0  0  0
   40.8651   20.7311   13.3753 C   0  0  0  0  0  0  0  0  0  0  0  0
   40.3536   19.5787   12.7453 C   0  0  0  0  0  0  0  0  0  0  0  0
   40.1229   15.9329    5.1480 C   0  0  0  0  0  0  0  0  0  0  0  0
   41.0811   15.7568    6.2504 C   0  0  0  0  0  0  0  0  0  0  0  0
   41.6022   14.5774    6.3110 O   0  0  0  0  0  0  0  0  0  0  0  0
   41.4727   16.6994    7.2133 N   0  0  0  0  0  0  0  0  0  0  0  0
   42.6518   16.4623    8.0194 C   0  0  1  0  0  0  0  0  0  0  0  0
   41.2984   17.5817    9.7932 N   0  0  0  0  0  0  0  0  0  0  0  0
   40.7274   17.6570   11.1216 C   0  0  0  0  0  0  0  0  0  0  0  0
   42.4733   19.3116   11.7551 C   0  0  0  0  0  0  0  0  0  0  0  0
   38.9763   19.1504   13.0627 C   0  0  0  0  0  0  0  0  0  0  0  0
   38.1985   18.7039   12.0483 O   0  0  0  0  0  0  0  0  0  0  0  0
   40.6257   18.3012    8.7285 C   0  0  0  0  0  0  0  0  0  0  0  0
   39.9139   19.4156    9.0279 C   0  0  0  0  0  0  0  0  0  0  0  0
   39.2756   20.0918    7.9858 C   0  0  0  0  0  0  0  0  0  0  0  0
   39.3534   19.6520    6.6572 C   0  0  0  0  0  0  0  0  0  0  0  0
   40.0795   18.5239    6.3804 C   0  0  0  0  0  0  0  0  0  0  0  0
   40.6979   17.8725    7.4122 C   0  0  0  0  0  0  0  0  0  0  0  0
   38.4895   21.2896    8.2384 C   0  0  0  0  0  0  0  0  0  0  0  0
   38.8182   22.1736    9.2397 C   0  0  0  0  0  0  0  0  0  0  0  0
   38.1181   23.2878    9.4970 N   0  0  0  0  0  0  0  0  0  0  0  0
   37.0452   23.5716    8.7560 C   0  0  0  0  0  0  0  0  0  0  0  0
   36.6955   22.7324    7.7716 N   0  0  0  0  0  0  0  0  0  0  0  0
   37.3696   21.5997    7.4759 C   0  0  0  0  0  0  0  0  0  0  0  0
   36.2634   24.7937    9.0239 C   0  0  0  0  0  0  0  0  0  0  0  0
   36.6738   25.6853   10.0424 N   0  0  0  0  0  0  0  0  0  0  0  0
   35.2346   25.0576    8.3601 O   0  0  0  0  0  0  0  0  0  0  0  0
   43.8462   17.2504    7.4627 C   0  0  1  0  0  0  0  0  0  0  0  0
   45.1845   16.9698    8.0104 C   0  0  0  0  0  0  0  0  0  0  0  0
   44.8718   16.6186    6.7007 C   0  0  0  0  0  0  0  0  0  0  0  0
 11  1  1  1
 12  1  1  0
  2  6  1  0
 13  2  1  0
  2 14  2  0
  3  4  2  0
 14  3  1  0
  5  4  1  0
  6  5  2  0
  6 15  1  0
  8  7  1  0
  8  9  2  0
 10  8  1  0
 11 10  1  0
 10 22  1  0
 11 32  1  0
 12 13  1  0
 12 17  1  0
 15 16  1  0
 17 18  2  0
 17 22  1  0
 18 19  1  0
 19 20  2  0
 19 23  1  0
 20 21  1  0
 21 22  2  0
 23 24  2  0
 23 28  1  0
 24 25  1  0
 25 26  2  0
 26 27  1  0
 26 29  1  0
 27 28  2  0
 29 30  1  0
 29 31  2  0
 32 33  1  1
 32 34  1  0
 33 34  2  0
M  END
$$$$
