
     RDKit          3D

 34 38  0  0  0  0  0  0  0  0999 V2000
   40.4019   18.3039    6.9744 C   0  0  0  0  0  0  0  0  0  0  0  0
   39.0491   20.0958    9.0747 C   0  0  0  0  0  0  0  0  0  0  0  0
   38.9238   22.2964    8.0434 C   0  0  0  0  0  0  0  0  0  0  0  0
   37.5595   22.3107    8.2338 C   0  0  0  0  0  0  0  0  0  0  0  0
   36.9208   21.2558    8.8315 C   0  0  0  0  0  0  0  0  0  0  0  0
   37.6906   20.1723    9.2389 C   0  0  0  0  0  0  0  0  0  0  0  0
   44.2174   14.9691    6.8784 C   0  0  0  0  0  0  0  0  0  0  0  0
   42.8952   15.5226    6.5714 C   0  0  0  0  0  0  0  0  0  0  0  0
   42.1888   14.7871    5.7704 O   0  0  0  0  0  0  0  0  0  0  0  0
   42.2797   16.7129    7.0189 N   0  0  0  0  0  0  0  0  0  0  0  0
   40.9405   16.9501    6.4904 C   0  0  1  0  0  0  0  0  0  0  0  0
   40.7332   18.5722    8.3315 N   0  0  0  0  0  0  0  0  0  0  0  0
   39.8633   18.9269    9.4039 C   0  0  0  0  0  0  0  0  0  0  0  0
   39.6555   21.2031    8.4590 C   0  0  0  0  0  0  0  0  0  0  0  0
   36.9830   19.0982    9.9840 C   0  0  0  0  0  0  0  0  0  0  0  0
   37.8946   18.7110   11.0137 O   0  0  0  0  0  0  0  0  0  0  0  0
   42.1462   18.4755    8.6579 C   0  0  0  0  0  0  0  0  0  0  0  0
   42.6966   19.3174    9.6089 C   0  0  0  0  0  0  0  0  0  0  0  0
   44.0538   19.2370    9.9064 C   0  0  0  0  0  0  0  0  0  0  0  0
   44.8031   18.3101    9.2296 C   0  0  0  0  0  0  0  0  0  0  0  0
   44.2506   17.4650    8.2775 C   0  0  0  0  0  0  0  0  0  0  0  0
   42.9186   17.5252    7.9752 C   0  0  0  0  0  0  0  0  0  0  0  0
   44.6791   20.0729   10.9100 C   0  0  0  0  0  0  0  0  0  0  0  0
   46.0302   20.3944   10.9093 C   0  0  0  0  0  0  0  0  0  0  0  0
   46.5041   21.1654   11.9073 N   0  0  0  0  0  0  0  0  0  0  0  0
   45.7124   21.6218   12.8849 C   0  0  0  0  0  0  0  0  0  0  0  0
   44.3846   21.3356   12.9297 N   0  0  0  0  0  0  0  0  0  0  0  0
   43.9002   20.5640   11.9351 C   0  0  0  0  0  0  0  0  0  0  0  0
   46.2822   22.4461   13.9399 C   0  0  0  0  0  0  0  0  0  0  0  0
   45.4338   23.1371   14.8584 N   0  0  0  0  0  0  0  0  0  0  0  0
   47.5343   22.5469   14.0388 O   0  0  0  0  0  0  0  0  0  0  0  0
   39.9345   15.9179    6.9039 C   0  0  1  0  0  0  0  0  0  0  0  0
   38.5967   15.9570    6.3351 C   0  0  0  0  0  0  0  0  0  0  0  0
   39.4774   15.0024    5.9333 C   0  0  0  0  0  0  0  0  0  0  0  0
  1 11  1  0
  1 12  1  6
  2  6  1  0
 13  2  1  0
  2 14  2  0
  3  4  2  0
 14  3  1  0
  5  4  1  0
  6  5  2  0
  6 15  1  0
  7  8  1  6
  8  9  2  0
 10  8  1  0
 11 10  1  1
 10 22  1  0
 11 32  1  0
 13 12  1  6
 12 17  1  0
 15 16  1  6
 17 18  2  0
 17 22  1  0
 18 19  1  0
 19 20  2  0
 19 23  1  0
 20 21  1  0
 21 22  2  0
 23 24  2  0
 23 28  1  0
 24 25  1  0
 25 26  2  0
 26 27  1  0
 26 29  1  0
 27 28  2  0
 29 30  1  0
 29 31  2  0
 32 33  1  6
 32 34  1  0
 33 34  2  0
M  END
$$$$
