
     RDKit          3D

 34 38  0  0  0  0  0  0  0  0999 V2000
   41.8950   16.8925    9.6372 C   0  0  0  0  0  0  0  0  0  0  0  0
   40.5179   18.0138   12.1102 C   0  0  0  0  0  0  0  0  0  0  0  0
   42.4282   17.4711   13.5346 C   0  0  0  0  0  0  0  0  0  0  0  0
   42.1200   18.5005   14.3830 C   0  0  0  0  0  0  0  0  0  0  0  0
   41.0400   19.2632   14.1023 C   0  0  0  0  0  0  0  0  0  0  0  0
   40.2240   19.0396   12.9750 C   0  0  0  0  0  0  0  0  0  0  0  0
   40.0583   15.2997    5.4849 C   0  0  0  0  0  0  0  0  0  0  0  0
   41.2603   15.6304    6.2660 C   0  0  0  0  0  0  0  0  0  0  0  0
   42.2840   14.8926    5.9939 O   0  0  0  0  0  0  0  0  0  0  0  0
   41.4076   16.6245    7.2453 N   0  0  0  0  0  0  0  0  0  0  0  0
   42.3849   16.4604    8.3009 C   0  0  1  0  0  0  0  0  0  0  0  0
   40.6477   17.6066    9.6790 N   0  0  0  0  0  0  0  0  0  0  0  0
   39.7959   17.7177   10.8446 C   0  0  0  0  0  0  0  0  0  0  0  0
   41.6471   17.2425   12.4366 C   0  0  0  0  0  0  0  0  0  0  0  0
   39.0194   19.8752   12.7958 C   0  0  0  0  0  0  0  0  0  0  0  0
   38.8161   20.4481   11.5859 O   0  0  0  0  0  0  0  0  0  0  0  0
   40.2098   18.2586    8.4595 C   0  0  0  0  0  0  0  0  0  0  0  0
   39.4237   19.3601    8.5419 C   0  0  0  0  0  0  0  0  0  0  0  0
   39.0155   19.9710    7.3541 C   0  0  0  0  0  0  0  0  0  0  0  0
   39.3949   19.4793    6.0975 C   0  0  0  0  0  0  0  0  0  0  0  0
   40.1903   18.3656    6.0409 C   0  0  0  0  0  0  0  0  0  0  0  0
   40.5808   17.7784    7.2132 C   0  0  0  0  0  0  0  0  0  0  0  0
   38.1652   21.1513    7.3706 C   0  0  0  0  0  0  0  0  0  0  0  0
   37.0166   21.2057    8.1255 C   0  0  0  0  0  0  0  0  0  0  0  0
   36.2128   22.2781    8.1664 N   0  0  0  0  0  0  0  0  0  0  0  0
   36.5250   23.3571    7.4459 C   0  0  0  0  0  0  0  0  0  0  0  0
   37.6371   23.3393    6.6985 N   0  0  0  0  0  0  0  0  0  0  0  0
   38.4761   22.2831    6.6261 C   0  0  0  0  0  0  0  0  0  0  0  0
   35.6530   24.5467    7.4794 C   0  0  0  0  0  0  0  0  0  0  0  0
   35.9344   25.6520    6.6428 N   0  0  0  0  0  0  0  0  0  0  0  0
   34.6604   24.5954    8.2415 O   0  0  0  0  0  0  0  0  0  0  0  0
   43.6539   17.2642    7.9828 C   0  0  1  0  0  0  0  0  0  0  0  0
   44.8259   17.0946    8.8590 C   0  0  0  0  0  0  0  0  0  0  0  0
   44.8539   16.6297    7.5476 C   0  0  0  0  0  0  0  0  0  0  0  0
 11  1  1  1
 12  1  1  0
  2  6  1  0
 13  2  1  0
  2 14  2  0
  3  4  2  0
 14  3  1  0
  5  4  1  0
  6  5  2  0
  6 15  1  0
  8  7  1  0
  8  9  2  0
 10  8  1  0
 11 10  1  0
 10 22  1  0
 11 32  1  0
 12 13  1  0
 12 17  1  0
 15 16  1  0
 17 18  2  0
 17 22  1  0
 18 19  1  0
 19 20  2  0
 19 23  1  0
 20 21  1  0
 21 22  2  0
 23 24  2  0
 23 28  1  0
 24 25  1  0
 25 26  2  0
 26 27  1  0
 26 29  1  0
 27 28  2  0
 29 30  1  0
 29 31  2  0
 32 33  1  1
 32 34  1  0
 33 34  2  0
M  END
$$$$
