
     RDKit          3D

 34 38  0  0  0  0  0  0  0  0999 V2000
   41.7412   16.3532    9.3789 C   0  0  0  0  0  0  0  0  0  0  0  0
   41.4507   18.5340   11.7158 C   0  0  0  0  0  0  0  0  0  0  0  0
   39.4887   18.0598   13.0750 C   0  0  0  0  0  0  0  0  0  0  0  0
   40.2767   18.0232   14.2043 C   0  0  0  0  0  0  0  0  0  0  0  0
   41.6284   18.2354   14.1269 C   0  0  0  0  0  0  0  0  0  0  0  0
   42.1791   18.4883   12.8758 C   0  0  0  0  0  0  0  0  0  0  0  0
   40.8912   16.2981    4.4175 C   0  0  0  0  0  0  0  0  0  0  0  0
   41.7209   16.2293    5.6241 C   0  0  0  0  0  0  0  0  0  0  0  0
   42.9055   15.7419    5.4222 O   0  0  0  0  0  0  0  0  0  0  0  0
   41.4325   16.6185    6.9512 N   0  0  0  0  0  0  0  0  0  0  0  0
   42.1907   15.9125    7.9786 C   0  0  1  0  0  0  0  0  0  0  0  0
   41.4874   17.7506    9.4585 N   0  0  0  0  0  0  0  0  0  0  0  0
   42.0215   18.6986   10.3798 C   0  0  0  0  0  0  0  0  0  0  0  0
   40.0702   18.3119   11.8495 C   0  0  0  0  0  0  0  0  0  0  0  0
   43.6264   18.8257   12.8436 C   0  0  0  0  0  0  0  0  0  0  0  0
   44.0840   18.3370   11.5815 O   0  0  0  0  0  0  0  0  0  0  0  0
   40.5560   18.2711    8.4715 C   0  0  0  0  0  0  0  0  0  0  0  0
   39.7078   19.3139    8.8019 C   0  0  0  0  0  0  0  0  0  0  0  0
   38.8028   19.7983    7.8620 C   0  0  0  0  0  0  0  0  0  0  0  0
   38.7886   19.2087    6.6248 C   0  0  0  0  0  0  0  0  0  0  0  0
   39.6404   18.1644    6.2933 C   0  0  0  0  0  0  0  0  0  0  0  0
   40.5397   17.6782    7.2011 C   0  0  0  0  0  0  0  0  0  0  0  0
   37.9101   20.9035    8.1421 C   0  0  0  0  0  0  0  0  0  0  0  0
   37.5281   21.2771    9.4240 C   0  0  0  0  0  0  0  0  0  0  0  0
   36.6755   22.3112    9.5609 N   0  0  0  0  0  0  0  0  0  0  0  0
   36.1960   22.9767    8.5035 C   0  0  0  0  0  0  0  0  0  0  0  0
   36.5399   22.6502    7.2299 N   0  0  0  0  0  0  0  0  0  0  0  0
   37.3929   21.6159    7.0820 C   0  0  0  0  0  0  0  0  0  0  0  0
   35.2733   24.0821    8.7131 C   0  0  0  0  0  0  0  0  0  0  0  0
   35.0456   24.5978   10.0258 N   0  0  0  0  0  0  0  0  0  0  0  0
   34.6737   24.5839    7.7250 O   0  0  0  0  0  0  0  0  0  0  0  0
   43.6697   16.1499    7.9105 C   0  0  1  0  0  0  0  0  0  0  0  0
   44.4801   15.9519    9.1018 C   0  0  0  0  0  0  0  0  0  0  0  0
   44.5331   15.0487    8.0869 C   0  0  0  0  0  0  0  0  0  0  0  0
  1 11  1  0
  1 12  1  6
  2  6  1  0
 13  2  1  0
  2 14  2  0
  3  4  2  0
 14  3  1  0
  5  4  1  0
  6  5  2  0
  6 15  1  0
  7  8  1  6
  8  9  2  0
 10  8  1  0
 11 10  1  6
 10 22  1  0
 11 32  1  0
 13 12  1  6
 12 17  1  0
 15 16  1  6
 17 18  2  0
 17 22  1  0
 18 19  1  0
 19 20  2  0
 19 23  1  0
 20 21  1  0
 21 22  2  0
 23 24  2  0
 23 28  1  0
 24 25  1  0
 25 26  2  0
 26 27  1  0
 26 29  1  0
 27 28  2  0
 29 30  1  0
 29 31  2  0
 32 33  1  1
 32 34  1  0
 33 34  2  0
M  END
$$$$
