
     RDKit          3D

 34 38  0  0  0  0  0  0  0  0999 V2000
   42.1087   17.0065    9.1975 C   0  0  0  0  0  0  0  0  0  0  0  0
   40.9539   17.8448   11.7624 C   0  0  0  0  0  0  0  0  0  0  0  0
   41.5243   16.4434   13.6815 C   0  0  0  0  0  0  0  0  0  0  0  0
   42.4903   17.3306   14.0741 C   0  0  0  0  0  0  0  0  0  0  0  0
   42.6806   18.4437   13.3314 C   0  0  0  0  0  0  0  0  0  0  0  0
   41.9258   18.7236   12.1744 C   0  0  0  0  0  0  0  0  0  0  0  0
   40.0218   15.3723    5.0631 C   0  0  0  0  0  0  0  0  0  0  0  0
   41.1460   15.5183    6.0008 C   0  0  0  0  0  0  0  0  0  0  0  0
   41.9771   14.5308    5.9834 O   0  0  0  0  0  0  0  0  0  0  0  0
   41.4009   16.5772    6.8855 N   0  0  0  0  0  0  0  0  0  0  0  0
   42.4667   16.4652    7.8591 C   0  0  1  0  0  0  0  0  0  0  0  0
   40.8844   17.7540    9.2965 N   0  0  0  0  0  0  0  0  0  0  0  0
   40.1443   17.9723   10.5218 C   0  0  0  0  0  0  0  0  0  0  0  0
   40.7850   16.7003   12.5612 C   0  0  0  0  0  0  0  0  0  0  0  0
   42.1514   20.0043   11.4743 C   0  0  0  0  0  0  0  0  0  0  0  0
   42.7455   21.0091   12.1605 O   0  0  0  0  0  0  0  0  0  0  0  0
   40.3504   18.3264    8.0754 C   0  0  0  0  0  0  0  0  0  0  0  0
   39.5965   19.4511    8.1445 C   0  0  0  0  0  0  0  0  0  0  0  0
   39.0941   19.9839    6.9553 C   0  0  0  0  0  0  0  0  0  0  0  0
   39.3481   19.3920    5.7104 C   0  0  0  0  0  0  0  0  0  0  0  0
   40.1133   18.2567    5.6670 C   0  0  0  0  0  0  0  0  0  0  0  0
   40.5972   17.7468    6.8406 C   0  0  0  0  0  0  0  0  0  0  0  0
   38.2719   21.1842    6.9587 C   0  0  0  0  0  0  0  0  0  0  0  0
   37.2530   21.3665    6.0527 C   0  0  0  0  0  0  0  0  0  0  0  0
   36.4745   22.4578    6.0302 N   0  0  0  0  0  0  0  0  0  0  0  0
   36.6820   23.4275    6.9232 C   0  0  0  0  0  0  0  0  0  0  0  0
   37.6663   23.2836    7.8211 N   0  0  0  0  0  0  0  0  0  0  0  0
   38.4749   22.2031    7.8819 C   0  0  0  0  0  0  0  0  0  0  0  0
   35.8346   24.6351    6.9143 C   0  0  0  0  0  0  0  0  0  0  0  0
   34.8585   24.8051    5.9048 N   0  0  0  0  0  0  0  0  0  0  0  0
   35.9653   25.5192    7.7917 O   0  0  0  0  0  0  0  0  0  0  0  0
   43.7170   17.2102    7.3697 C   0  0  1  0  0  0  0  0  0  0  0  0
   44.8948   17.2532    8.2533 C   0  0  0  0  0  0  0  0  0  0  0  0
   44.9293   16.5234    7.0690 C   0  0  0  0  0  0  0  0  0  0  0  0
 11  1  1  1
 12  1  1  0
  2  6  1  0
 13  2  1  0
  2 14  2  0
  3  4  2  0
 14  3  1  0
  5  4  1  0
  6  5  2  0
  6 15  1  0
  8  7  1  0
  8  9  2  0
 10  8  1  0
 11 10  1  0
 10 22  1  0
 11 32  1  0
 12 13  1  0
 12 17  1  0
 15 16  1  0
 17 18  2  0
 17 22  1  0
 18 19  1  0
 19 20  2  0
 19 23  1  0
 20 21  1  0
 21 22  2  0
 23 24  2  0
 23 28  1  0
 24 25  1  0
 25 26  2  0
 26 27  1  0
 26 29  1  0
 27 28  2  0
 29 30  1  0
 29 31  2  0
 32 33  1  1
 32 34  1  0
 33 34  2  0
M  END
$$$$
