
     RDKit          3D

 34 38  0  0  0  0  0  0  0  0999 V2000
   42.3889   16.5642    9.2129 C   0  0  0  0  0  0  0  0  0  0  0  0
   40.2257   18.7103   11.3623 C   0  0  0  0  0  0  0  0  0  0  0  0
   38.3367   20.2328   11.6564 C   0  0  0  0  0  0  0  0  0  0  0  0
   39.1464   21.1624   12.2519 C   0  0  0  0  0  0  0  0  0  0  0  0
   40.4588   20.8731   12.3966 C   0  0  0  0  0  0  0  0  0  0  0  0
   41.0216   19.6570   11.9597 C   0  0  0  0  0  0  0  0  0  0  0  0
   39.7233   15.5896    5.1794 C   0  0  0  0  0  0  0  0  0  0  0  0
   40.9276   15.5401    6.0229 C   0  0  0  0  0  0  0  0  0  0  0  0
   41.6697   14.5035    5.8200 O   0  0  0  0  0  0  0  0  0  0  0  0
   41.3402   16.4644    6.9947 N   0  0  0  0  0  0  0  0  0  0  0  0
   42.5323   16.2089    7.7757 C   0  0  1  0  0  0  0  0  0  0  0  0
   41.2151   17.3030    9.5920 N   0  0  0  0  0  0  0  0  0  0  0  0
   40.6678   17.3577   10.9314 C   0  0  0  0  0  0  0  0  0  0  0  0
   38.8675   19.0483   11.2285 C   0  0  0  0  0  0  0  0  0  0  0  0
   42.4803   19.4651   12.0885 C   0  0  0  0  0  0  0  0  0  0  0  0
   43.2375   19.5701   10.9708 O   0  0  0  0  0  0  0  0  0  0  0  0
   40.5268   18.0433    8.5518 C   0  0  0  0  0  0  0  0  0  0  0  0
   39.8251   19.1552    8.8828 C   0  0  0  0  0  0  0  0  0  0  0  0
   39.1715   19.8517    7.8638 C   0  0  0  0  0  0  0  0  0  0  0  0
   39.2240   19.4344    6.5267 C   0  0  0  0  0  0  0  0  0  0  0  0
   39.9402   18.3084    6.2179 C   0  0  0  0  0  0  0  0  0  0  0  0
   40.5740   17.6370    7.2274 C   0  0  0  0  0  0  0  0  0  0  0  0
   38.3950   21.0481    8.1507 C   0  0  0  0  0  0  0  0  0  0  0  0
   37.2405   21.3440    7.4638 C   0  0  0  0  0  0  0  0  0  0  0  0
   36.4996   22.4351    7.7050 N   0  0  0  0  0  0  0  0  0  0  0  0
   36.8841   23.2896    8.6552 C   0  0  0  0  0  0  0  0  0  0  0  0
   38.0042   23.0330    9.3446 N   0  0  0  0  0  0  0  0  0  0  0  0
   38.7816   21.9480    9.1368 C   0  0  0  0  0  0  0  0  0  0  0  0
   36.0808   24.4949    8.9353 C   0  0  0  0  0  0  0  0  0  0  0  0
   34.8830   24.7270    8.2197 N   0  0  0  0  0  0  0  0  0  0  0  0
   36.4438   25.3228    9.8022 O   0  0  0  0  0  0  0  0  0  0  0  0
   43.7200   17.0018    7.2115 C   0  0  1  0  0  0  0  0  0  0  0  0
   44.8838   17.2322    8.0847 C   0  0  0  0  0  0  0  0  0  0  0  0
   44.9872   16.3913    6.9808 C   0  0  0  0  0  0  0  0  0  0  0  0
 11  1  1  1
 12  1  1  0
  2  6  1  0
 13  2  1  0
  2 14  2  0
  3  4  2  0
 14  3  1  0
  5  4  1  0
  6  5  2  0
  6 15  1  0
  8  7  1  0
  8  9  2  0
 10  8  1  0
 11 10  1  0
 10 22  1  0
 11 32  1  0
 12 13  1  0
 12 17  1  0
 15 16  1  0
 17 18  2  0
 17 22  1  0
 18 19  1  0
 19 20  2  0
 19 23  1  0
 20 21  1  0
 21 22  2  0
 23 24  2  0
 23 28  1  0
 24 25  1  0
 25 26  2  0
 26 27  1  0
 26 29  1  0
 27 28  2  0
 29 30  1  0
 29 31  2  0
 32 33  1  1
 32 34  1  0
 33 34  2  0
M  END
$$$$
