
     RDKit          3D

 34 38  0  0  0  0  0  0  0  0999 V2000
   41.7367   16.9465   10.2213 C   0  0  0  0  0  0  0  0  0  0  0  0
   42.5389   19.2186   11.8324 C   0  0  0  0  0  0  0  0  0  0  0  0
   44.6232   20.0871   12.7397 C   0  0  0  0  0  0  0  0  0  0  0  0
   44.6370   19.0799   13.6793 C   0  0  0  0  0  0  0  0  0  0  0  0
   43.6380   18.1426   13.7216 C   0  0  0  0  0  0  0  0  0  0  0  0
   42.6120   18.2394   12.7887 C   0  0  0  0  0  0  0  0  0  0  0  0
   43.9067   15.6635    6.4834 C   0  0  0  0  0  0  0  0  0  0  0  0
   42.6587   16.4207    6.6174 C   0  0  0  0  0  0  0  0  0  0  0  0
   42.0760   16.6807    5.4885 O   0  0  0  0  0  0  0  0  0  0  0  0
   41.9996   16.8930    7.7743 N   0  0  0  0  0  0  0  0  0  0  0  0
   42.5756   16.4442    9.0376 C   0  0  1  0  0  0  0  0  0  0  0  0
   41.2721   18.2784   10.0377 N   0  0  0  0  0  0  0  0  0  0  0  0
   41.4206   19.3980   10.9078 C   0  0  0  0  0  0  0  0  0  0  0  0
   43.5876   20.1530   11.8305 C   0  0  0  0  0  0  0  0  0  0  0  0
   41.6078   17.1434   12.7904 C   0  0  0  0  0  0  0  0  0  0  0  0
   42.2558   16.0577   12.1252 O   0  0  0  0  0  0  0  0  0  0  0  0
   40.5470   18.5196    8.8013 C   0  0  0  0  0  0  0  0  0  0  0  0
   39.5022   19.4272    8.7769 C   0  0  0  0  0  0  0  0  0  0  0  0
   38.7961   19.6428    7.5971 C   0  0  0  0  0  0  0  0  0  0  0  0
   39.1719   18.9311    6.4877 C   0  0  0  0  0  0  0  0  0  0  0  0
   40.2206   18.0225    6.5121 C   0  0  0  0  0  0  0  0  0  0  0  0
   40.9295   17.8008    7.6599 C   0  0  0  0  0  0  0  0  0  0  0  0
   37.7120   20.5984    7.5051 C   0  0  0  0  0  0  0  0  0  0  0  0
   37.0410   20.8880    6.3241 C   0  0  0  0  0  0  0  0  0  0  0  0
   36.0604   21.8113    6.3562 N   0  0  0  0  0  0  0  0  0  0  0  0
   35.7237   22.4459    7.4853 C   0  0  0  0  0  0  0  0  0  0  0  0
   36.3496   22.1975    8.6658 N   0  0  0  0  0  0  0  0  0  0  0  0
   37.3332   21.2749    8.6442 C   0  0  0  0  0  0  0  0  0  0  0  0
   34.6597   23.4381    7.4575 C   0  0  0  0  0  0  0  0  0  0  0  0
   34.1433   23.9819    8.6734 N   0  0  0  0  0  0  0  0  0  0  0  0
   34.1946   23.8162    6.3492 O   0  0  0  0  0  0  0  0  0  0  0  0
   43.9757   16.9279    9.2708 C   0  0  1  0  0  0  0  0  0  0  0  0
   44.6457   17.6999    8.2365 C   0  0  0  0  0  0  0  0  0  0  0  0
   44.1972   18.3177    9.3615 C   0  0  0  0  0  0  0  0  0  0  0  0
  1 11  1  0
  1 12  1  6
  2  6  1  0
 13  2  1  0
  2 14  2  0
  3  4  2  0
 14  3  1  0
  5  4  1  0
  6  5  2  0
  6 15  1  0
  7  8  1  6
  8  9  2  0
 10  8  1  0
 11 10  1  6
 10 22  1  0
 11 32  1  0
 13 12  1  6
 12 17  1  0
 15 16  1  6
 17 18  2  0
 17 22  1  0
 18 19  1  0
 19 20  2  0
 19 23  1  0
 20 21  1  0
 21 22  2  0
 23 24  2  0
 23 28  1  0
 24 25  1  0
 25 26  2  0
 26 27  1  0
 26 29  1  0
 27 28  2  0
 29 30  1  0
 29 31  2  0
 32 33  1  6
 32 34  1  0
 33 34  2  0
M  END
$$$$
