
     RDKit          3D

 34 38  0  0  0  0  0  0  0  0999 V2000
   42.2380   16.5671    9.2234 C   0  0  0  0  0  0  0  0  0  0  0  0
   40.2842   18.6266   11.4845 C   0  0  0  0  0  0  0  0  0  0  0  0
   38.7905   20.3401   12.3820 C   0  0  0  0  0  0  0  0  0  0  0  0
   39.8573   21.0656   12.8404 C   0  0  0  0  0  0  0  0  0  0  0  0
   41.1019   20.5844   12.6248 C   0  0  0  0  0  0  0  0  0  0  0  0
   41.3410   19.3705   11.9496 C   0  0  0  0  0  0  0  0  0  0  0  0
   39.9429   15.8987    4.8994 C   0  0  0  0  0  0  0  0  0  0  0  0
   41.0423   15.7542    5.8663 C   0  0  0  0  0  0  0  0  0  0  0  0
   41.7576   14.6934    5.6949 O   0  0  0  0  0  0  0  0  0  0  0  0
   41.3827   16.6137    6.9219 N   0  0  0  0  0  0  0  0  0  0  0  0
   42.4994   16.2915    7.7853 C   0  0  1  0  0  0  0  0  0  0  0  0
   41.0464   17.3054    9.5436 N   0  0  0  0  0  0  0  0  0  0  0  0
   40.3868   17.2943   10.8325 C   0  0  0  0  0  0  0  0  0  0  0  0
   39.0063   19.1604   11.7265 C   0  0  0  0  0  0  0  0  0  0  0  0
   42.7381   18.9672   11.6912 C   0  0  0  0  0  0  0  0  0  0  0  0
   43.2283   17.9008   12.3665 O   0  0  0  0  0  0  0  0  0  0  0  0
   40.4607   18.1168    8.4936 C   0  0  0  0  0  0  0  0  0  0  0  0
   39.7490   19.2212    8.8279 C   0  0  0  0  0  0  0  0  0  0  0  0
   39.1954   19.9869    7.7994 C   0  0  0  0  0  0  0  0  0  0  0  0
   39.3569   19.6455    6.4495 C   0  0  0  0  0  0  0  0  0  0  0  0
   40.0810   18.5254    6.1377 C   0  0  0  0  0  0  0  0  0  0  0  0
   40.6160   17.7856    7.1565 C   0  0  0  0  0  0  0  0  0  0  0  0
   38.4141   21.1796    8.0885 C   0  0  0  0  0  0  0  0  0  0  0  0
   37.3201   21.5296    7.3316 C   0  0  0  0  0  0  0  0  0  0  0  0
   36.5765   22.6190    7.5723 N   0  0  0  0  0  0  0  0  0  0  0  0
   36.8970   23.4169    8.5929 C   0  0  0  0  0  0  0  0  0  0  0  0
   37.9569   23.1066    9.3517 N   0  0  0  0  0  0  0  0  0  0  0  0
   38.7345   22.0210    9.1474 C   0  0  0  0  0  0  0  0  0  0  0  0
   36.0896   24.6194    8.8736 C   0  0  0  0  0  0  0  0  0  0  0  0
   34.9389   24.8939    8.0981 N   0  0  0  0  0  0  0  0  0  0  0  0
   36.4077   25.4075    9.7935 O   0  0  0  0  0  0  0  0  0  0  0  0
   43.7424   17.0924    7.3714 C   0  0  1  0  0  0  0  0  0  0  0  0
   44.8681   17.1734    8.3181 C   0  0  0  0  0  0  0  0  0  0  0  0
   44.9965   16.4591    7.1308 C   0  0  0  0  0  0  0  0  0  0  0  0
 11  1  1  1
 12  1  1  0
  2  6  1  0
 13  2  1  0
  2 14  2  0
  3  4  2  0
 14  3  1  0
  5  4  1  0
  6  5  2  0
  6 15  1  0
  8  7  1  0
  8  9  2  0
 10  8  1  0
 11 10  1  0
 10 22  1  0
 11 32  1  0
 12 13  1  0
 12 17  1  0
 15 16  1  0
 17 18  2  0
 17 22  1  0
 18 19  1  0
 19 20  2  0
 19 23  1  0
 20 21  1  0
 21 22  2  0
 23 24  2  0
 23 28  1  0
 24 25  1  0
 25 26  2  0
 26 27  1  0
 26 29  1  0
 27 28  2  0
 29 30  1  0
 29 31  2  0
 32 33  1  1
 32 34  1  0
 33 34  2  0
M  END
$$$$
