
     RDKit          3D

 34 38  0  0  0  0  0  0  0  0999 V2000
   41.2598   17.9171    6.0244 C   0  0  0  0  0  0  0  0  0  0  0  0
   39.8504   19.8144    8.9628 C   0  0  0  0  0  0  0  0  0  0  0  0
   41.0923   20.1837   11.0227 C   0  0  0  0  0  0  0  0  0  0  0  0
   39.9496   20.6560   11.6300 C   0  0  0  0  0  0  0  0  0  0  0  0
   38.7632   20.7179   10.9468 C   0  0  0  0  0  0  0  0  0  0  0  0
   38.7483   20.2904    9.6242 C   0  0  0  0  0  0  0  0  0  0  0  0
   43.6612   14.1187    8.2202 C   0  0  0  0  0  0  0  0  0  0  0  0
   42.4688   14.7538    7.6511 C   0  0  0  0  0  0  0  0  0  0  0  0
   41.5376   13.9177    7.3113 O   0  0  0  0  0  0  0  0  0  0  0  0
   42.1814   16.1193    7.4309 N   0  0  0  0  0  0  0  0  0  0  0  0
   41.4451   16.4036    6.2036 C   0  0  1  0  0  0  0  0  0  0  0  0
   40.9682   18.5822    7.2475 N   0  0  0  0  0  0  0  0  0  0  0  0
   39.8804   19.4541    7.5461 C   0  0  0  0  0  0  0  0  0  0  0  0
   41.0404   19.7695    9.7077 C   0  0  0  0  0  0  0  0  0  0  0  0
   37.4238   20.2645    8.9499 C   0  0  0  0  0  0  0  0  0  0  0  0
   36.4920   19.9745    9.9934 O   0  0  0  0  0  0  0  0  0  0  0  0
   41.9106   18.3406    8.3273 C   0  0  0  0  0  0  0  0  0  0  0  0
   42.1930   19.3442    9.2377 C   0  0  0  0  0  0  0  0  0  0  0  0
   43.1103   19.1179   10.2596 C   0  0  0  0  0  0  0  0  0  0  0  0
   43.7086   17.8862   10.3208 C   0  0  0  0  0  0  0  0  0  0  0  0
   43.4239   16.8796    9.4089 C   0  0  0  0  0  0  0  0  0  0  0  0
   42.5219   17.0810    8.4014 C   0  0  0  0  0  0  0  0  0  0  0  0
   43.4255   20.1205   11.2557 C   0  0  0  0  0  0  0  0  0  0  0  0
   44.6964   20.3058   11.7842 C   0  0  0  0  0  0  0  0  0  0  0  0
   44.8660   21.2585   12.7217 N   0  0  0  0  0  0  0  0  0  0  0  0
   43.8509   22.0192   13.1481 C   0  0  0  0  0  0  0  0  0  0  0  0
   42.5899   21.8770   12.6617 N   0  0  0  0  0  0  0  0  0  0  0  0
   42.4095   20.9256   11.7228 C   0  0  0  0  0  0  0  0  0  0  0  0
   44.0935   23.0289   14.1673 C   0  0  0  0  0  0  0  0  0  0  0  0
   43.0319   23.8695   14.6225 N   0  0  0  0  0  0  0  0  0  0  0  0
   45.2510   23.1575   14.6482 O   0  0  0  0  0  0  0  0  0  0  0  0
   40.0739   15.7980    6.1659 C   0  0  1  0  0  0  0  0  0  0  0  0
   38.9615   16.5815    5.6523 C   0  0  0  0  0  0  0  0  0  0  0  0
   39.4784   15.5676    4.9083 C   0  0  0  0  0  0  0  0  0  0  0  0
  1 11  1  0
  1 12  1  6
  2  6  1  0
 13  2  1  0
  2 14  2  0
  3  4  2  0
 14  3  1  0
  5  4  1  0
  6  5  2  0
  6 15  1  0
  7  8  1  6
  8  9  2  0
 10  8  1  0
 11 10  1  1
 10 22  1  0
 11 32  1  0
 13 12  1  6
 12 17  1  0
 15 16  1  6
 17 18  2  0
 17 22  1  0
 18 19  1  0
 19 20  2  0
 19 23  1  0
 20 21  1  0
 21 22  2  0
 23 24  2  0
 23 28  1  0
 24 25  1  0
 25 26  2  0
 26 27  1  0
 26 29  1  0
 27 28  2  0
 29 30  1  0
 29 31  2  0
 32 33  1  1
 32 34  1  0
 33 34  2  0
M  END
$$$$
