
     RDKit          3D

 34 38  0  0  0  0  0  0  0  0999 V2000
   42.4832   17.4475    9.2529 C   0  0  0  0  0  0  0  0  0  0  0  0
   41.2282   17.8177   11.8461 C   0  0  0  0  0  0  0  0  0  0  0  0
   40.9884   15.9457   13.3988 C   0  0  0  0  0  0  0  0  0  0  0  0
   42.2028   16.2272   13.9650 C   0  0  0  0  0  0  0  0  0  0  0  0
   42.9081   17.2756   13.4851 C   0  0  0  0  0  0  0  0  0  0  0  0
   42.4427   18.0852   12.4294 C   0  0  0  0  0  0  0  0  0  0  0  0
   39.9173   15.2844    5.7352 C   0  0  0  0  0  0  0  0  0  0  0  0
   41.2087   15.6245    6.3524 C   0  0  0  0  0  0  0  0  0  0  0  0
   42.1260   14.7330    6.1784 O   0  0  0  0  0  0  0  0  0  0  0  0
   41.5383   16.7723    7.0892 N   0  0  0  0  0  0  0  0  0  0  0  0
   42.7047   16.7707    7.9471 C   0  0  1  0  0  0  0  0  0  0  0  0
   41.2634   18.1931    9.4066 N   0  0  0  0  0  0  0  0  0  0  0  0
   40.6558   18.5343   10.6759 C   0  0  0  0  0  0  0  0  0  0  0  0
   40.5242   16.7209   12.3735 C   0  0  0  0  0  0  0  0  0  0  0  0
   43.2472   19.2567   12.0276 C   0  0  0  0  0  0  0  0  0  0  0  0
   44.5189   19.3429   12.4847 O   0  0  0  0  0  0  0  0  0  0  0  0
   40.5906   18.6301    8.1982 C   0  0  0  0  0  0  0  0  0  0  0  0
   39.8284   19.7508    8.2317 C   0  0  0  0  0  0  0  0  0  0  0  0
   39.1912   20.1520    7.0555 C   0  0  0  0  0  0  0  0  0  0  0  0
   39.3203   19.4340    5.8586 C   0  0  0  0  0  0  0  0  0  0  0  0
   40.0967   18.3055    5.8503 C   0  0  0  0  0  0  0  0  0  0  0  0
   40.7134   17.9253    7.0108 C   0  0  0  0  0  0  0  0  0  0  0  0
   38.3526   21.3404    7.0237 C   0  0  0  0  0  0  0  0  0  0  0  0
   38.0750   21.9995    5.8487 C   0  0  0  0  0  0  0  0  0  0  0  0
   37.3037   23.0943    5.7833 N   0  0  0  0  0  0  0  0  0  0  0  0
   36.7690   23.5853    6.9031 C   0  0  0  0  0  0  0  0  0  0  0  0
   37.0184   22.9685    8.0664 N   0  0  0  0  0  0  0  0  0  0  0  0
   37.7881   21.8643    8.1808 C   0  0  0  0  0  0  0  0  0  0  0  0
   35.9169   24.7885    6.8504 C   0  0  0  0  0  0  0  0  0  0  0  0
   35.4738   25.3928    8.0500 N   0  0  0  0  0  0  0  0  0  0  0  0
   35.5764   25.2880    5.7535 O   0  0  0  0  0  0  0  0  0  0  0  0
   43.8812   17.4683    7.2495 C   0  0  1  0  0  0  0  0  0  0  0  0
   44.7863   18.2953    8.0659 C   0  0  0  0  0  0  0  0  0  0  0  0
   45.2332   17.1000    7.5110 C   0  0  0  0  0  0  0  0  0  0  0  0
 11  1  1  1
 12  1  1  0
  2  6  1  0
 13  2  1  0
  2 14  2  0
  3  4  2  0
 14  3  1  0
  5  4  1  0
  6  5  2  0
  6 15  1  0
  8  7  1  0
  8  9  2  0
 10  8  1  0
 11 10  1  0
 10 22  1  0
 11 32  1  0
 12 13  1  0
 12 17  1  0
 15 16  1  0
 17 18  2  0
 17 22  1  0
 18 19  1  0
 19 20  2  0
 19 23  1  0
 20 21  1  0
 21 22  2  0
 23 24  2  0
 23 28  1  0
 24 25  1  0
 25 26  2  0
 26 27  1  0
 26 29  1  0
 27 28  2  0
 29 30  1  0
 29 31  2  0
 32 33  1  1
 32 34  1  0
 33 34  2  0
M  END
$$$$
