
     RDKit          3D

 34 38  0  0  0  0  0  0  0  0999 V2000
   43.1275   17.6767    8.8240 C   0  0  0  0  0  0  0  0  0  0  0  0
   41.2716   18.1226   11.6563 C   0  0  0  0  0  0  0  0  0  0  0  0
   41.4373   16.1524   13.0928 C   0  0  0  0  0  0  0  0  0  0  0  0
   40.2007   16.4044   13.6236 C   0  0  0  0  0  0  0  0  0  0  0  0
   39.5194   17.4847   13.1811 C   0  0  0  0  0  0  0  0  0  0  0  0
   40.0318   18.3566   12.1992 C   0  0  0  0  0  0  0  0  0  0  0  0
   39.5438   15.2201    6.4015 C   0  0  0  0  0  0  0  0  0  0  0  0
   40.8841   15.4842    6.9477 C   0  0  0  0  0  0  0  0  0  0  0  0
   41.6126   14.4279    7.0880 O   0  0  0  0  0  0  0  0  0  0  0  0
   41.4355   16.7184    7.3243 N   0  0  0  0  0  0  0  0  0  0  0  0
   42.8438   16.8128    7.6469 C   0  0  1  0  0  0  0  0  0  0  0  0
   42.0400   18.4659    9.3357 N   0  0  0  0  0  0  0  0  0  0  0  0
   41.9660   19.0018   10.6788 C   0  0  0  0  0  0  0  0  0  0  0  0
   41.9481   16.9893   12.1407 C   0  0  0  0  0  0  0  0  0  0  0  0
   39.1798   19.4644   11.7217 C   0  0  0  0  0  0  0  0  0  0  0  0
   37.9625   19.1583   11.2140 O   0  0  0  0  0  0  0  0  0  0  0  0
   40.9332   18.7395    8.4389 C   0  0  0  0  0  0  0  0  0  0  0  0
   40.2064   19.8712    8.6085 C   0  0  0  0  0  0  0  0  0  0  0  0
   39.1462   20.1133    7.7321 C   0  0  0  0  0  0  0  0  0  0  0  0
   38.8216   19.2266    6.6961 C   0  0  0  0  0  0  0  0  0  0  0  0
   39.5717   18.0905    6.5451 C   0  0  0  0  0  0  0  0  0  0  0  0
   40.6061   17.8675    7.4121 C   0  0  0  0  0  0  0  0  0  0  0  0
   38.3212   21.3044    7.8626 C   0  0  0  0  0  0  0  0  0  0  0  0
   38.2883   22.0386    9.0255 C   0  0  0  0  0  0  0  0  0  0  0  0
   37.5426   23.1423    9.1783 N   0  0  0  0  0  0  0  0  0  0  0  0
   36.7873   23.5668    8.1633 C   0  0  0  0  0  0  0  0  0  0  0  0
   36.7947   22.8759    7.0151 N   0  0  0  0  0  0  0  0  0  0  0  0
   37.5291   21.7598    6.8153 C   0  0  0  0  0  0  0  0  0  0  0  0
   35.9612   24.7799    8.3128 C   0  0  0  0  0  0  0  0  0  0  0  0
   36.0675   25.5666    9.4835 N   0  0  0  0  0  0  0  0  0  0  0  0
   35.1611   25.1281    7.4143 O   0  0  0  0  0  0  0  0  0  0  0  0
   43.6285   17.3734    6.4521 C   0  0  1  0  0  0  0  0  0  0  0  0
   45.0990   17.4029    6.5343 C   0  0  0  0  0  0  0  0  0  0  0  0
   44.4606   16.5433    5.6456 C   0  0  0  0  0  0  0  0  0  0  0  0
 11  1  1  1
 12  1  1  0
  2  6  1  0
 13  2  1  0
  2 14  2  0
  3  4  2  0
 14  3  1  0
  5  4  1  0
  6  5  2  0
  6 15  1  0
  8  7  1  0
  8  9  2  0
 10  8  1  0
 11 10  1  0
 10 22  1  0
 11 32  1  0
 12 13  1  0
 12 17  1  0
 15 16  1  0
 17 18  2  0
 17 22  1  0
 18 19  1  0
 19 20  2  0
 19 23  1  0
 20 21  1  0
 21 22  2  0
 23 24  2  0
 23 28  1  0
 24 25  1  0
 25 26  2  0
 26 27  1  0
 26 29  1  0
 27 28  2  0
 29 30  1  0
 29 31  2  0
 32 33  1  1
 32 34  1  0
 33 34  2  0
M  END
$$$$
