
     RDKit          3D

 34 38  0  0  0  0  0  0  0  0999 V2000
   42.2487   17.1252   10.0192 C   0  0  0  0  0  0  0  0  0  0  0  0
   40.7971   17.7819   12.4806 C   0  0  0  0  0  0  0  0  0  0  0  0
   41.2043   16.3352   14.4078 C   0  0  0  0  0  0  0  0  0  0  0  0
   42.1093   17.2270   14.9177 C   0  0  0  0  0  0  0  0  0  0  0  0
   42.3493   18.3644   14.2280 C   0  0  0  0  0  0  0  0  0  0  0  0
   41.7063   18.6648   13.0102 C   0  0  0  0  0  0  0  0  0  0  0  0
   41.9850   15.7585    5.2549 C   0  0  0  0  0  0  0  0  0  0  0  0
   41.6931   15.7081    6.6960 C   0  0  0  0  0  0  0  0  0  0  0  0
   41.2897   14.5542    7.1109 O   0  0  0  0  0  0  0  0  0  0  0  0
   41.7978   16.7452    7.6353 N   0  0  0  0  0  0  0  0  0  0  0  0
   42.7674   16.6552    8.7068 C   0  0  1  0  0  0  0  0  0  0  0  0
   40.9791   17.8003   10.0189 N   0  0  0  0  0  0  0  0  0  0  0  0
   40.1108   17.9314   11.1701 C   0  0  0  0  0  0  0  0  0  0  0  0
   40.5735   16.6118   13.2274 C   0  0  0  0  0  0  0  0  0  0  0  0
   41.9739   19.9689   12.3709 C   0  0  0  0  0  0  0  0  0  0  0  0
   40.9858   20.8947   12.3747 O   0  0  0  0  0  0  0  0  0  0  0  0
   40.5353   18.3882    8.7694 C   0  0  0  0  0  0  0  0  0  0  0  0
   39.7141   19.4666    8.7986 C   0  0  0  0  0  0  0  0  0  0  0  0
   39.3009   20.0156    7.5827 C   0  0  0  0  0  0  0  0  0  0  0  0
   39.7101   19.4858    6.3512 C   0  0  0  0  0  0  0  0  0  0  0  0
   40.5406   18.3965    6.3483 C   0  0  0  0  0  0  0  0  0  0  0  0
   40.9356   17.8700    7.5476 C   0  0  0  0  0  0  0  0  0  0  0  0
   38.4138   21.1680    7.5422 C   0  0  0  0  0  0  0  0  0  0  0  0
   37.4593   21.3129    6.5624 C   0  0  0  0  0  0  0  0  0  0  0  0
   36.6240   22.3596    6.4976 N   0  0  0  0  0  0  0  0  0  0  0  0
   36.7064   23.3200    7.4205 C   0  0  0  0  0  0  0  0  0  0  0  0
   37.6249   23.2117    8.3901 N   0  0  0  0  0  0  0  0  0  0  0  0
   38.4866   22.1767    8.4956 C   0  0  0  0  0  0  0  0  0  0  0  0
   35.7947   24.4787    7.3659 C   0  0  0  0  0  0  0  0  0  0  0  0
   35.8362   25.4582    8.3854 N   0  0  0  0  0  0  0  0  0  0  0  0
   34.9784   24.6111    6.4253 O   0  0  0  0  0  0  0  0  0  0  0  0
   44.0142   17.4853    8.3693 C   0  0  1  0  0  0  0  0  0  0  0  0
   44.8837   17.9208    9.4758 C   0  0  0  0  0  0  0  0  0  0  0  0
   45.3305   16.9728    8.5603 C   0  0  0  0  0  0  0  0  0  0  0  0
 11  1  1  1
 12  1  1  0
  2  6  1  0
 13  2  1  0
  2 14  2  0
  3  4  2  0
 14  3  1  0
  5  4  1  0
  6  5  2  0
  6 15  1  0
  8  7  1  0
  8  9  2  0
 10  8  1  0
 11 10  1  0
 10 22  1  0
 11 32  1  0
 12 13  1  0
 12 17  1  0
 15 16  1  0
 17 18  2  0
 17 22  1  0
 18 19  1  0
 19 20  2  0
 19 23  1  0
 20 21  1  0
 21 22  2  0
 23 24  2  0
 23 28  1  0
 24 25  1  0
 25 26  2  0
 26 27  1  0
 26 29  1  0
 27 28  2  0
 29 30  1  0
 29 31  2  0
 32 33  1  1
 32 34  1  0
 33 34  2  0
M  END
$$$$
