
     RDKit          3D

 34 38  0  0  0  0  0  0  0  0999 V2000
   42.2969   19.8395   13.6364 C   0  0  0  0  0  0  0  0  0  0  0  0
   40.0359   17.7586   13.7460 C   0  0  0  0  0  0  0  0  0  0  0  0
   37.6459   17.9471   13.2717 C   0  0  0  0  0  0  0  0  0  0  0  0
   37.3684   18.1025   14.6034 C   0  0  0  0  0  0  0  0  0  0  0  0
   38.3969   18.0876   15.4802 C   0  0  0  0  0  0  0  0  0  0  0  0
   39.7369   17.9189   15.0770 C   0  0  0  0  0  0  0  0  0  0  0  0
   46.7960   20.5529   11.5508 C   0  0  0  0  0  0  0  0  0  0  0  0
   45.7602   20.3121   12.5674 C   0  0  0  0  0  0  0  0  0  0  0  0
   46.2150   20.2305   13.7727 O   0  0  0  0  0  0  0  0  0  0  0  0
   44.3785   20.1620   12.3741 N   0  0  0  0  0  0  0  0  0  0  0  0
   43.4490   20.7285   13.3288 C   0  0  1  0  0  0  0  0  0  0  0  0
   42.1287   18.6745   12.8105 N   0  0  0  0  0  0  0  0  0  0  0  0
   41.3889   17.4895   13.1913 C   0  0  0  0  0  0  0  0  0  0  0  0
   38.9402   17.7813   12.8654 C   0  0  0  0  0  0  0  0  0  0  0  0
   40.7994   17.9970   16.0998 C   0  0  0  0  0  0  0  0  0  0  0  0
   41.0823   19.2091   16.6328 O   0  0  0  0  0  0  0  0  0  0  0  0
   42.7522   18.6881   11.5010 C   0  0  0  0  0  0  0  0  0  0  0  0
   42.2048   17.9583   10.4982 C   0  0  0  0  0  0  0  0  0  0  0  0
   42.8225   17.9879    9.2460 C   0  0  0  0  0  0  0  0  0  0  0  0
   43.9779   18.7443    9.0054 C   0  0  0  0  0  0  0  0  0  0  0  0
   44.5113   19.4738   10.0347 C   0  0  0  0  0  0  0  0  0  0  0  0
   43.8949   19.4335   11.2554 C   0  0  0  0  0  0  0  0  0  0  0  0
   42.2918   17.2222    8.1286 C   0  0  0  0  0  0  0  0  0  0  0  0
   43.0663   16.3211    7.4355 C   0  0  0  0  0  0  0  0  0  0  0  0
   42.6083   15.5970    6.4043 N   0  0  0  0  0  0  0  0  0  0  0  0
   41.3402   15.7430    6.0148 C   0  0  0  0  0  0  0  0  0  0  0  0
   40.5566   16.6123    6.6674 N   0  0  0  0  0  0  0  0  0  0  0  0
   40.9737   17.3624    7.7106 C   0  0  0  0  0  0  0  0  0  0  0  0
   40.8185   14.9538    4.8827 C   0  0  0  0  0  0  0  0  0  0  0  0
   39.4768   15.1185    4.4664 N   0  0  0  0  0  0  0  0  0  0  0  0
   41.5484   14.1343    4.2793 O   0  0  0  0  0  0  0  0  0  0  0  0
   42.8897   22.0587   12.8042 C   0  0  1  0  0  0  0  0  0  0  0  0
   41.7123   22.6348   13.4764 C   0  0  0  0  0  0  0  0  0  0  0  0
   42.9538   23.2555   13.5759 C   0  0  0  0  0  0  0  0  0  0  0  0
 11  1  1  6
 12  1  1  0
  2  6  1  0
 13  2  1  0
  2 14  2  0
  3  4  2  0
 14  3  1  0
  5  4  1  0
  6  5  2  0
  6 15  1  0
  8  7  1  0
  8  9  2  0
 10  8  1  0
 11 10  1  0
 10 22  1  0
 11 32  1  0
 12 13  1  0
 12 17  1  0
 15 16  1  0
 17 18  2  0
 17 22  1  0
 18 19  1  0
 19 20  2  0
 19 23  1  0
 20 21  1  0
 21 22  2  0
 23 24  2  0
 23 28  1  0
 24 25  1  0
 25 26  2  0
 26 27  1  0
 26 29  1  0
 27 28  2  0
 29 30  1  0
 29 31  2  0
 32 33  1  1
 32 34  1  0
 33 34  2  0
M  END
$$$$
