
     RDKit          3D

 34 38  0  0  0  0  0  0  0  0999 V2000
   42.1407   17.3446    9.5292 C   0  0  0  0  0  0  0  0  0  0  0  0
   41.0390   18.0414   12.1164 C   0  0  0  0  0  0  0  0  0  0  0  0
   41.3783   16.3526   13.8500 C   0  0  0  0  0  0  0  0  0  0  0  0
   42.4526   17.0414   14.3459 C   0  0  0  0  0  0  0  0  0  0  0  0
   42.8079   18.1982   13.7437 C   0  0  0  0  0  0  0  0  0  0  0  0
   42.1176   18.7187   12.6306 C   0  0  0  0  0  0  0  0  0  0  0  0
   39.6831   15.3473    5.8514 C   0  0  0  0  0  0  0  0  0  0  0  0
   40.9620   15.6501    6.5126 C   0  0  0  0  0  0  0  0  0  0  0  0
   41.8754   14.7575    6.3251 O   0  0  0  0  0  0  0  0  0  0  0  0
   41.2834   16.7646    7.3023 N   0  0  0  0  0  0  0  0  0  0  0  0
   42.4076   16.7055    8.2129 C   0  0  1  0  0  0  0  0  0  0  0  0
   40.9330   18.1153    9.6512 N   0  0  0  0  0  0  0  0  0  0  0  0
   40.2744   18.4299   10.9018 C   0  0  0  0  0  0  0  0  0  0  0  0
   40.6995   16.8440   12.7704 C   0  0  0  0  0  0  0  0  0  0  0  0
   42.5306   20.0300   12.0910 C   0  0  0  0  0  0  0  0  0  0  0  0
   43.8347   20.2050   11.7715 O   0  0  0  0  0  0  0  0  0  0  0  0
   40.3286   18.6084    8.4284 C   0  0  0  0  0  0  0  0  0  0  0  0
   39.5924   19.7462    8.4645 C   0  0  0  0  0  0  0  0  0  0  0  0
   39.0211   20.2017    7.2742 C   0  0  0  0  0  0  0  0  0  0  0  0
   39.1896   19.5202    6.0609 C   0  0  0  0  0  0  0  0  0  0  0  0
   39.9386   18.3734    6.0505 C   0  0  0  0  0  0  0  0  0  0  0  0
   40.4906   17.9400    7.2248 C   0  0  0  0  0  0  0  0  0  0  0  0
   38.2133   21.4112    7.2438 C   0  0  0  0  0  0  0  0  0  0  0  0
   37.4589   21.8054    8.3245 C   0  0  0  0  0  0  0  0  0  0  0  0
   36.7067   22.9153    8.3314 N   0  0  0  0  0  0  0  0  0  0  0  0
   36.6744   23.6901    7.2454 C   0  0  0  0  0  0  0  0  0  0  0  0
   37.3971   23.3366    6.1738 N   0  0  0  0  0  0  0  0  0  0  0  0
   38.1687   22.2290    6.1209 C   0  0  0  0  0  0  0  0  0  0  0  0
   35.8532   24.9157    7.2353 C   0  0  0  0  0  0  0  0  0  0  0  0
   35.7717   25.7012    6.0617 N   0  0  0  0  0  0  0  0  0  0  0  0
   35.2220   25.2757    8.2554 O   0  0  0  0  0  0  0  0  0  0  0  0
   43.6320   17.3956    7.5946 C   0  0  1  0  0  0  0  0  0  0  0  0
   44.8602   17.4935    8.4019 C   0  0  0  0  0  0  0  0  0  0  0  0
   44.8196   16.6735    7.2784 C   0  0  0  0  0  0  0  0  0  0  0  0
 11  1  1  1
 12  1  1  0
  2  6  1  0
 13  2  1  0
  2 14  2  0
  3  4  2  0
 14  3  1  0
  5  4  1  0
  6  5  2  0
  6 15  1  0
  8  7  1  0
  8  9  2  0
 10  8  1  0
 11 10  1  0
 10 22  1  0
 11 32  1  0
 12 13  1  0
 12 17  1  0
 15 16  1  0
 17 18  2  0
 17 22  1  0
 18 19  1  0
 19 20  2  0
 19 23  1  0
 20 21  1  0
 21 22  2  0
 23 24  2  0
 23 28  1  0
 24 25  1  0
 25 26  2  0
 26 27  1  0
 26 29  1  0
 27 28  2  0
 29 30  1  0
 29 31  2  0
 32 33  1  1
 32 34  1  0
 33 34  2  0
M  END
$$$$
