
     RDKit          3D

 34 38  0  0  0  0  0  0  0  0999 V2000
   41.9472   16.2515    9.3665 C   0  0  0  0  0  0  0  0  0  0  0  0
   41.5208   18.3795   11.7927 C   0  0  0  0  0  0  0  0  0  0  0  0
   39.4558   17.9233   12.9968 C   0  0  0  0  0  0  0  0  0  0  0  0
   40.1539   17.8823   14.1837 C   0  0  0  0  0  0  0  0  0  0  0  0
   41.5092   18.0837   14.2108 C   0  0  0  0  0  0  0  0  0  0  0  0
   42.1569   18.3300   13.0057 C   0  0  0  0  0  0  0  0  0  0  0  0
   41.1277   16.4826    4.4044 C   0  0  0  0  0  0  0  0  0  0  0  0
   41.9495   16.3477    5.6108 C   0  0  0  0  0  0  0  0  0  0  0  0
   43.1390   15.8814    5.3889 O   0  0  0  0  0  0  0  0  0  0  0  0
   41.6491   16.6551    6.9566 N   0  0  0  0  0  0  0  0  0  0  0  0
   42.4097   15.8988    7.9457 C   0  0  1  0  0  0  0  0  0  0  0  0
   41.6766   17.6389    9.5262 N   0  0  0  0  0  0  0  0  0  0  0  0
   42.1945   18.5372   10.5047 C   0  0  0  0  0  0  0  0  0  0  0  0
   40.1323   18.1686   11.8196 C   0  0  0  0  0  0  0  0  0  0  0  0
   43.6051   18.6558   13.0851 C   0  0  0  0  0  0  0  0  0  0  0  0
   43.9327   19.1661   11.7914 O   0  0  0  0  0  0  0  0  0  0  0  0
   40.7448   18.2058    8.5655 C   0  0  0  0  0  0  0  0  0  0  0  0
   39.8826   19.2177    8.9510 C   0  0  0  0  0  0  0  0  0  0  0  0
   38.9774   19.7461    8.0354 C   0  0  0  0  0  0  0  0  0  0  0  0
   38.9770   19.2299    6.7657 C   0  0  0  0  0  0  0  0  0  0  0  0
   39.8428   18.2165    6.3791 C   0  0  0  0  0  0  0  0  0  0  0  0
   40.7426   17.6882    7.2625 C   0  0  0  0  0  0  0  0  0  0  0  0
   38.0703   20.8228    8.3740 C   0  0  0  0  0  0  0  0  0  0  0  0
   37.7284   21.1584    9.6776 C   0  0  0  0  0  0  0  0  0  0  0  0
   36.8576   22.1682    9.8701 N   0  0  0  0  0  0  0  0  0  0  0  0
   36.3229   22.8452    8.8471 C   0  0  0  0  0  0  0  0  0  0  0  0
   36.6259   22.5555    7.5543 N   0  0  0  0  0  0  0  0  0  0  0  0
   37.4967   21.5458    7.3508 C   0  0  0  0  0  0  0  0  0  0  0  0
   35.3832   23.9229    9.1165 C   0  0  0  0  0  0  0  0  0  0  0  0
   35.0776   24.2997   10.4602 N   0  0  0  0  0  0  0  0  0  0  0  0
   34.8382   24.5245    8.1527 O   0  0  0  0  0  0  0  0  0  0  0  0
   43.8862   16.1565    7.9009 C   0  0  1  0  0  0  0  0  0  0  0  0
   44.6607   16.0862    9.1298 C   0  0  0  0  0  0  0  0  0  0  0  0
   44.7608   15.0931    8.2066 C   0  0  0  0  0  0  0  0  0  0  0  0
  1 11  1  0
  1 12  1  6
  2  6  1  0
 13  2  1  0
  2 14  2  0
  3  4  2  0
 14  3  1  0
  5  4  1  0
  6  5  2  0
  6 15  1  0
  7  8  1  6
  8  9  2  0
 10  8  1  0
 11 10  1  6
 10 22  1  0
 11 32  1  0
 13 12  1  6
 12 17  1  0
 15 16  1  6
 17 18  2  0
 17 22  1  0
 18 19  1  0
 19 20  2  0
 19 23  1  0
 20 21  1  0
 21 22  2  0
 23 24  2  0
 23 28  1  0
 24 25  1  0
 25 26  2  0
 26 27  1  0
 26 29  1  0
 27 28  2  0
 29 30  1  0
 29 31  2  0
 32 33  1  1
 32 34  1  0
 33 34  2  0
M  END
$$$$
