
     RDKit          3D

 20 22  0  0  0  0  0  0  0  0999 V2000
   -4.8750    4.1843  -22.3312 C   0  0  0  0  0  0  0  0  0  0  0  0
   -4.6453    6.5629  -20.8096 C   0  0  0  0  0  0  0  0  0  0  0  0
   -3.8218    7.8585  -18.8834 C   0  0  0  0  0  0  0  0  0  0  0  0
   -4.2193   10.1456  -18.6542 N   0  0  0  0  0  0  0  0  0  0  0  0
   -4.9089   10.1705  -19.8043 C   0  0  0  0  0  0  0  0  0  0  0  0
   -4.2223    5.4566  -24.3754 C   0  0  2  0  0  0  0  0  0  0  0  0
   -2.5358    6.0683  -26.0118 C   0  0  0  0  0  0  0  0  0  0  0  0
   -5.3937    5.7165  -25.2491 C   0  0  0  0  0  0  0  0  0  0  0  0
   -5.3044    5.4171  -18.7256 C   0  0  0  0  0  0  0  0  0  0  0  0
   -5.0122    5.4478  -20.2086 C   0  0  0  0  0  0  0  0  0  0  0  0
   -5.1850    4.1529  -20.9050 C   0  0  0  0  0  0  0  0  0  0  0  0
   -4.9263    3.1733  -23.0867 O   0  0  0  0  0  0  0  0  0  0  0  0
   -4.4870    5.3955  -22.9572 N   0  0  0  0  0  0  0  0  0  0  0  0
   -4.3723    6.5700  -22.2036 N   0  0  0  0  0  0  0  0  0  0  0  0
   -4.5292    7.8291  -20.0857 C   0  0  0  0  0  0  0  0  0  0  0  0
   -3.6668    9.0188  -18.1679 C   0  0  0  0  0  0  0  0  0  0  0  0
   -5.0678    9.0173  -20.5264 C   0  0  0  0  0  0  0  0  0  0  0  0
   -3.0816    6.4537  -24.6627 C   0  0  0  0  0  0  0  0  0  0  0  0
   -3.5602    5.5733  -26.9010 N   0  0  0  0  0  4  0  0  0  0  0  0
   -4.8182    6.2591  -26.5692 C   0  0  0  0  0  0  0  0  0  0  0  0
 11  1  1  0
  1 12  2  0
  1 13  1  0
 10  2  2  0
  2 14  1  0
  2 15  1  0
 15  3  2  0
  3 16  1  0
  4  5  1  0
 16  4  2  0
  5 17  2  0
  6  8  1  0
  6 13  1  1
  6 18  1  0
 18  7  1  0
  7 19  1  0
  8 20  1  0
 10  9  1  0
 10 11  1  0
 13 14  1  0
 15 17  1  0
 19 20  1  0
M  CHG  1  19   1
M  END
$$$$
