
     RDKit          3D

 20 22  0  0  0  0  0  0  0  0999 V2000
   -5.7074    4.5680  -21.1359 C   0  0  0  0  0  0  0  0  0  0  0  0
   -4.2854    6.9595  -20.6024 C   0  0  0  0  0  0  0  0  0  0  0  0
   -2.1538    8.1436  -20.2545 C   0  0  0  0  0  0  0  0  0  0  0  0
   -2.0339   10.4632  -20.0392 N   0  0  0  0  0  0  0  0  0  0  0  0
   -3.3640   10.5734  -20.1718 C   0  0  0  0  0  0  0  0  0  0  0  0
   -4.6947    4.5020  -23.4149 C   0  0  2  0  0  0  0  0  0  0  0  0
   -3.2047    3.1150  -24.7388 C   0  0  0  0  0  0  0  0  0  0  0  0
   -5.3030    5.2220  -24.5615 C   0  0  0  0  0  0  0  0  0  0  0  0
   -5.2418    7.1453  -18.3350 C   0  0  0  0  0  0  0  0  0  0  0  0
   -5.0816    6.4641  -19.6750 C   0  0  0  0  0  0  0  0  0  0  0  0
   -5.8878    5.2348  -19.8499 C   0  0  0  0  0  0  0  0  0  0  0  0
   -6.2790    3.4884  -21.4571 O   0  0  0  0  0  0  0  0  0  0  0  0
   -4.8497    5.1212  -22.1198 N   0  0  0  0  0  0  0  0  0  0  0  0
   -4.1464    6.3024  -21.8540 N   0  0  0  0  0  0  0  0  0  0  0  0
   -3.5405    8.2021  -20.3982 C   0  0  0  0  0  0  0  0  0  0  0  0
   -1.4006    9.2763  -20.0754 C   0  0  0  0  0  0  0  0  0  0  0  0
   -4.1243    9.4484  -20.3524 C   0  0  0  0  0  0  0  0  0  0  0  0
   -3.2091    4.1862  -23.6809 C   0  0  0  0  0  0  0  0  0  0  0  0
   -4.2883    3.2657  -25.6814 N   0  0  0  0  0  4  0  0  0  0  0  0
   -4.5766    4.7017  -25.8145 C   0  0  0  0  0  0  0  0  0  0  0  0
 11  1  1  0
  1 12  2  0
  1 13  1  0
 10  2  2  0
  2 14  1  0
  2 15  1  0
 15  3  2  0
  3 16  1  0
  4  5  1  0
 16  4  2  0
  5 17  2  0
  6  8  1  0
  6 13  1  1
  6 18  1  0
 18  7  1  0
  7 19  1  0
  8 20  1  0
 10  9  1  0
 10 11  1  0
 13 14  1  0
 15 17  1  0
 19 20  1  0
M  CHG  1  19   1
M  END
$$$$
