
     RDKit          3D

 20 22  0  0  0  0  0  0  0  0999 V2000
   -5.2669    4.3983  -21.9773 C   0  0  0  0  0  0  0  0  0  0  0  0
   -4.4021    6.6233  -20.4517 C   0  0  0  0  0  0  0  0  0  0  0  0
   -4.2195    9.0713  -20.2488 C   0  0  0  0  0  0  0  0  0  0  0  0
   -3.1586   10.0996  -18.4436 N   0  0  0  0  0  0  0  0  0  0  0  0
   -2.8672    8.9089  -17.8993 C   0  0  0  0  0  0  0  0  0  0  0  0
   -4.1306    5.3593  -23.9796 C   0  0  2  0  0  0  0  0  0  0  0  0
   -2.2529    5.1054  -25.4982 C   0  0  0  0  0  0  0  0  0  0  0  0
   -4.9738    6.1609  -24.9014 C   0  0  0  0  0  0  0  0  0  0  0  0
   -5.5075    5.7855  -18.4105 C   0  0  0  0  0  0  0  0  0  0  0  0
   -5.1321    5.6905  -19.8718 C   0  0  0  0  0  0  0  0  0  0  0  0
   -5.6559    4.4970  -20.5738 C   0  0  0  0  0  0  0  0  0  0  0  0
   -5.5839    3.4359  -22.7314 O   0  0  0  0  0  0  0  0  0  0  0  0
   -4.4855    5.4155  -22.5811 N   0  0  0  0  0  0  0  0  0  0  0  0
   -4.0575    6.5138  -21.8254 N   0  0  0  0  0  0  0  0  0  0  0  0
   -3.9425    7.8076  -19.7259 C   0  0  0  0  0  0  0  0  0  0  0  0
   -3.8270   10.2179  -19.6057 C   0  0  0  0  0  0  0  0  0  0  0  0
   -3.2560    7.7585  -18.5331 C   0  0  0  0  0  0  0  0  0  0  0  0
   -2.6356    5.6891  -24.1643 C   0  0  0  0  0  0  0  0  0  0  0  0
   -3.3278    5.1746  -26.4599 N   0  0  0  0  0  4  0  0  0  0  0  0
   -4.1227    6.3764  -26.1653 C   0  0  0  0  0  0  0  0  0  0  0  0
 11  1  1  0
  1 12  2  0
  1 13  1  0
 10  2  2  0
  2 14  1  0
  2 15  1  0
 15  3  2  0
  3 16  1  0
  4  5  1  0
 16  4  2  0
  5 17  2  0
  6  8  1  0
  6 13  1  1
  6 18  1  0
 18  7  1  0
  7 19  1  0
  8 20  1  0
 10  9  1  0
 10 11  1  0
 13 14  1  0
 15 17  1  0
 19 20  1  0
M  CHG  1  19   1
M  END
$$$$
