
     RDKit          3D

 20 22  0  0  0  0  0  0  0  0999 V2000
   -6.1646    5.3197  -21.2138 C   0  0  0  0  0  0  0  0  0  0  0  0
   -4.3598    7.3740  -20.4731 C   0  0  0  0  0  0  0  0  0  0  0  0
   -2.2779    8.1119  -19.3830 C   0  0  0  0  0  0  0  0  0  0  0  0
   -1.5075   10.3095  -19.5191 N   0  0  0  0  0  0  0  0  0  0  0  0
   -2.5645   10.6646  -20.2644 C   0  0  0  0  0  0  0  0  0  0  0  0
   -4.6151    4.6532  -23.0518 C   0  0  2  0  0  0  0  0  0  0  0  0
   -2.9859    3.0403  -23.8525 C   0  0  0  0  0  0  0  0  0  0  0  0
   -5.0044    5.1642  -24.3899 C   0  0  0  0  0  0  0  0  0  0  0  0
   -5.8221    8.1406  -18.6390 C   0  0  0  0  0  0  0  0  0  0  0  0
   -5.4847    7.2325  -19.7995 C   0  0  0  0  0  0  0  0  0  0  0  0
   -6.5095    6.2100  -20.1095 C   0  0  0  0  0  0  0  0  0  0  0  0
   -6.8922    4.3632  -21.6025 O   0  0  0  0  0  0  0  0  0  0  0  0
   -4.9518    5.4934  -21.9269 N   0  0  0  0  0  0  0  0  0  0  0  0
   -4.0600    6.5081  -21.5586 N   0  0  0  0  0  0  0  0  0  0  0  0
   -3.3961    8.4280  -20.1556 C   0  0  0  0  0  0  0  0  0  0  0  0
   -1.3329    9.0545  -19.0655 C   0  0  0  0  0  0  0  0  0  0  0  0
   -3.5126    9.7303  -20.5878 C   0  0  0  0  0  0  0  0  0  0  0  0
   -3.1190    4.2820  -23.0116 C   0  0  0  0  0  0  0  0  0  0  0  0
   -3.8982    3.0314  -24.9718 N   0  0  0  0  0  4  0  0  0  0  0  0
   -4.1071    4.4236  -25.3972 C   0  0  0  0  0  0  0  0  0  0  0  0
 11  1  1  0
  1 12  2  0
  1 13  1  0
 10  2  2  0
  2 14  1  0
  2 15  1  0
 15  3  2  0
  3 16  1  0
  4  5  1  0
 16  4  2  0
  5 17  2  0
  6  8  1  0
  6 13  1  1
  6 18  1  0
 18  7  1  0
  7 19  1  0
  8 20  1  0
 10  9  1  0
 10 11  1  0
 13 14  1  0
 15 17  1  0
 19 20  1  0
M  CHG  1  19   1
M  END
$$$$
