
     RDKit          3D

 20 22  0  0  0  0  0  0  0  0999 V2000
   -3.4270    7.8077  -22.9410 C   0  0  0  0  0  0  0  0  0  0  0  0
   -3.8615    7.1853  -20.2116 C   0  0  0  0  0  0  0  0  0  0  0  0
   -3.0357    6.1752  -18.1224 C   0  0  0  0  0  0  0  0  0  0  0  0
   -4.3452    6.0411  -16.1966 N   0  0  0  0  0  0  0  0  0  0  0  0
   -5.3748    6.6322  -16.8206 C   0  0  0  0  0  0  0  0  0  0  0  0
   -3.7959    5.4098  -23.5223 C   0  0  2  0  0  0  0  0  0  0  0  0
   -4.5040    3.1074  -23.8287 C   0  0  0  0  0  0  0  0  0  0  0  0
   -2.7196    5.3829  -24.5442 C   0  0  0  0  0  0  0  0  0  0  0  0
   -3.4919    9.5228  -19.5119 C   0  0  0  0  0  0  0  0  0  0  0  0
   -3.5797    8.4281  -20.5509 C   0  0  0  0  0  0  0  0  0  0  0  0
   -3.3138    8.8645  -21.9403 C   0  0  0  0  0  0  0  0  0  0  0  0
   -3.2735    7.9911  -24.1812 O   0  0  0  0  0  0  0  0  0  0  0  0
   -3.7264    6.4776  -22.5527 N   0  0  0  0  0  0  0  0  0  0  0  0
   -3.9425    6.1718  -21.2036 N   0  0  0  0  0  0  0  0  0  0  0  0
   -4.0750    6.7939  -18.8180 C   0  0  0  0  0  0  0  0  0  0  0  0
   -3.1719    5.7993  -16.8100 C   0  0  0  0  0  0  0  0  0  0  0  0
   -5.2479    7.0124  -18.1305 C   0  0  0  0  0  0  0  0  0  0  0  0
   -3.9201    4.0485  -22.8089 C   0  0  0  0  0  0  0  0  0  0  0  0
   -4.0522    3.3968  -25.1693 N   0  0  0  0  0  4  0  0  0  0  0  0
   -2.6887    3.9407  -25.0804 C   0  0  0  0  0  0  0  0  0  0  0  0
 11  1  1  0
  1 12  2  0
  1 13  1  0
 10  2  2  0
  2 14  1  0
  2 15  1  0
 15  3  2  0
  3 16  1  0
  4  5  1  0
 16  4  2  0
  5 17  2  0
  6  8  1  0
  6 13  1  1
  6 18  1  0
 18  7  1  0
  7 19  1  0
  8 20  1  0
 10  9  1  0
 10 11  1  0
 13 14  1  0
 15 17  1  0
 19 20  1  0
M  CHG  1  19   1
M  END
$$$$
