
     RDKit          3D

 20 22  0  0  0  0  0  0  0  0999 V2000
   -1.3190    7.5619  -22.0207 C   0  0  0  0  0  0  0  0  0  0  0  0
   -3.6190    7.5002  -20.3678 C   0  0  0  0  0  0  0  0  0  0  0  0
   -6.0659    7.6695  -20.1415 C   0  0  0  0  0  0  0  0  0  0  0  0
   -7.1669    7.2440  -18.1295 N   0  0  0  0  0  0  0  0  0  0  0  0
   -6.0037    6.9847  -17.5143 C   0  0  0  0  0  0  0  0  0  0  0  0
   -2.4702    6.0521  -23.6389 C   0  0  2  0  0  0  0  0  0  0  0  0
   -2.8922    6.2192  -26.0244 C   0  0  0  0  0  0  0  0  0  0  0  0
   -2.8261    4.6165  -23.5143 C   0  0  0  0  0  0  0  0  0  0  0  0
   -2.5750    8.9697  -18.6822 C   0  0  0  0  0  0  0  0  0  0  0  0
   -2.5688    8.1988  -19.9827 C   0  0  0  0  0  0  0  0  0  0  0  0
   -1.3079    8.2865  -20.7534 C   0  0  0  0  0  0  0  0  0  0  0  0
   -0.3526    7.5478  -22.8338 O   0  0  0  0  0  0  0  0  0  0  0  0
   -2.4575    6.8135  -22.4122 N   0  0  0  0  0  0  0  0  0  0  0  0
   -3.5941    6.7853  -21.5950 N   0  0  0  0  0  0  0  0  0  0  0  0
   -4.8290    7.4095  -19.5503 C   0  0  0  0  0  0  0  0  0  0  0  0
   -7.2356    7.5858  -19.4294 C   0  0  0  0  0  0  0  0  0  0  0  0
   -4.8307    7.0643  -18.2172 C   0  0  0  0  0  0  0  0  0  0  0  0
   -3.3495    6.7539  -24.6935 C   0  0  0  0  0  0  0  0  0  0  0  0
   -2.4824    4.8364  -25.9525 N   0  0  0  0  0  4  0  0  0  0  0  0
   -3.2900    4.1779  -24.9146 C   0  0  0  0  0  0  0  0  0  0  0  0
 11  1  1  0
  1 12  2  0
  1 13  1  0
 10  2  2  0
  2 14  1  0
  2 15  1  0
 15  3  2  0
  3 16  1  0
  4  5  1  0
 16  4  2  0
  5 17  2  0
  6  8  1  0
  6 13  1  1
  6 18  1  0
 18  7  1  0
  7 19  1  0
  8 20  1  0
 10  9  1  0
 10 11  1  0
 13 14  1  0
 15 17  1  0
 19 20  1  0
M  CHG  1  19   1
M  END
$$$$
