
     RDKit          3D

 20 22  0  0  0  0  0  0  0  0999 V2000
   -2.6594    7.8889  -22.1712 C   0  0  0  0  0  0  0  0  0  0  0  0
   -4.0193    7.0963  -19.8157 C   0  0  0  0  0  0  0  0  0  0  0  0
   -6.0003    6.0809  -18.7615 C   0  0  0  0  0  0  0  0  0  0  0  0
   -6.1210    5.6657  -16.4692 N   0  0  0  0  0  0  0  0  0  0  0  0
   -4.8936    6.1734  -16.2832 C   0  0  0  0  0  0  0  0  0  0  0  0
   -3.2973    5.7263  -23.2390 C   0  0  2  0  0  0  0  0  0  0  0  0
   -4.6416    4.8716  -25.0717 C   0  0  0  0  0  0  0  0  0  0  0  0
   -2.4489    4.5179  -23.0866 C   0  0  0  0  0  0  0  0  0  0  0  0
   -3.4286    9.1877  -18.6462 C   0  0  0  0  0  0  0  0  0  0  0  0
   -3.4088    8.2650  -19.8436 C   0  0  0  0  0  0  0  0  0  0  0  0
   -2.6514    8.7731  -21.0097 C   0  0  0  0  0  0  0  0  0  0  0  0
   -2.1020    8.1636  -23.2709 O   0  0  0  0  0  0  0  0  0  0  0  0
   -3.3184    6.6349  -22.1170 N   0  0  0  0  0  0  0  0  0  0  0  0
   -3.9914    6.2452  -20.9526 N   0  0  0  0  0  0  0  0  0  0  0  0
   -4.7202    6.6187  -18.6235 C   0  0  0  0  0  0  0  0  0  0  0  0
   -6.7004    5.6037  -17.6824 C   0  0  0  0  0  0  0  0  0  0  0  0
   -4.1863    6.6511  -17.3546 C   0  0  0  0  0  0  0  0  0  0  0  0
   -4.7356    5.3486  -23.6468 C   0  0  0  0  0  0  0  0  0  0  0  0
   -3.4049    4.1763  -25.3406 N   0  0  0  0  0  4  0  0  0  0  0  0
   -2.9887    3.4974  -24.1042 C   0  0  0  0  0  0  0  0  0  0  0  0
 11  1  1  0
  1 12  2  0
  1 13  1  0
 10  2  2  0
  2 14  1  0
  2 15  1  0
 15  3  2  0
  3 16  1  0
  4  5  1  0
 16  4  2  0
  5 17  2  0
  6  8  1  0
  6 13  1  1
  6 18  1  0
 18  7  1  0
  7 19  1  0
  8 20  1  0
 10  9  1  0
 10 11  1  0
 13 14  1  0
 15 17  1  0
 19 20  1  0
M  CHG  1  19   1
M  END
$$$$
