
     RDKit          3D

 20 22  0  0  0  0  0  0  0  0999 V2000
   -5.5531    4.9108  -23.3089 C   0  0  0  0  0  0  0  0  0  0  0  0
   -4.5791    6.4931  -21.1703 C   0  0  0  0  0  0  0  0  0  0  0  0
   -4.5937    7.1723  -18.8027 C   0  0  0  0  0  0  0  0  0  0  0  0
   -3.2796    8.9233  -17.9972 N   0  0  0  0  0  0  0  0  0  0  0  0
   -2.7827    9.1522  -19.2218 C   0  0  0  0  0  0  0  0  0  0  0  0
   -5.9681    6.9884  -24.6261 C   0  0  2  0  0  0  0  0  0  0  0  0
   -5.3481    7.5317  -26.9101 C   0  0  0  0  0  0  0  0  0  0  0  0
   -6.8592    8.1576  -24.4204 C   0  0  0  0  0  0  0  0  0  0  0  0
   -4.1486    4.5119  -19.7631 C   0  0  0  0  0  0  0  0  0  0  0  0
   -4.6189    5.1819  -21.0341 C   0  0  0  0  0  0  0  0  0  0  0  0
   -5.1262    4.2589  -22.0745 C   0  0  0  0  0  0  0  0  0  0  0  0
   -5.9798    4.2907  -24.3231 O   0  0  0  0  0  0  0  0  0  0  0  0
   -5.5060    6.3224  -23.4312 N   0  0  0  0  0  0  0  0  0  0  0  0
   -5.0229    7.1029  -22.3740 N   0  0  0  0  0  0  0  0  0  0  0  0
   -4.1082    7.3678  -20.0961 C   0  0  0  0  0  0  0  0  0  0  0  0
   -4.1777    7.9513  -17.7527 C   0  0  0  0  0  0  0  0  0  0  0  0
   -3.1909    8.3789  -20.2762 C   0  0  0  0  0  0  0  0  0  0  0  0
   -4.7732    7.3517  -25.5305 C   0  0  0  0  0  0  0  0  0  0  0  0
   -6.6775    8.0950  -26.8850 N   0  0  0  0  0  4  0  0  0  0  0  0
   -6.7713    8.9829  -25.7164 C   0  0  0  0  0  0  0  0  0  0  0  0
 11  1  1  0
  1 12  2  0
  1 13  1  0
 10  2  2  0
  2 14  1  0
  2 15  1  0
 15  3  2  0
  3 16  1  0
  4  5  1  0
 16  4  2  0
  5 17  2  0
  6  8  1  0
  6 13  1  1
  6 18  1  0
 18  7  1  0
  7 19  1  0
  8 20  1  0
 10  9  1  0
 10 11  1  0
 13 14  1  0
 15 17  1  0
 19 20  1  0
M  CHG  1  19   1
M  END
$$$$
