
     RDKit          3D

 20 22  0  0  0  0  0  0  0  0999 V2000
  -10.6774   13.8953  -27.5567 C   0  0  0  0  0  0  0  0  0  0  0  0
   -9.8117   11.7117  -25.9729 C   0  0  0  0  0  0  0  0  0  0  0  0
  -10.3741    9.7458  -24.5996 C   0  0  0  0  0  0  0  0  0  0  0  0
   -8.7460    8.3032  -23.7571 N   0  0  0  0  0  0  0  0  0  0  0  0
   -7.7691    9.0326  -24.3161 C   0  0  0  0  0  0  0  0  0  0  0  0
  -12.3402   12.4019  -28.6651 C   0  0  2  0  0  0  0  0  0  0  0  0
  -14.7183   11.9587  -28.8759 C   0  0  0  0  0  0  0  0  0  0  0  0
  -11.9407   11.7322  -29.9281 C   0  0  0  0  0  0  0  0  0  0  0  0
   -8.1125   13.0839  -24.8240 C   0  0  0  0  0  0  0  0  0  0  0  0
   -9.2274   12.8848  -25.8254 C   0  0  0  0  0  0  0  0  0  0  0  0
   -9.5820   14.0883  -26.6112 C   0  0  0  0  0  0  0  0  0  0  0  0
  -11.1472   14.8112  -28.2886 O   0  0  0  0  0  0  0  0  0  0  0  0
  -11.2876   12.6240  -27.7019 N   0  0  0  0  0  0  0  0  0  0  0  0
  -10.8598   11.5461  -26.9173 N   0  0  0  0  0  0  0  0  0  0  0  0
   -9.3972   10.5393  -25.2020 C   0  0  0  0  0  0  0  0  0  0  0  0
  -10.0470    8.6263  -23.8770 C   0  0  0  0  0  0  0  0  0  0  0  0
   -8.0858   10.1512  -25.0405 C   0  0  0  0  0  0  0  0  0  0  0  0
  -13.5266   11.6748  -28.0008 C   0  0  0  0  0  0  0  0  0  0  0  0
  -14.3684   12.0445  -30.2742 N   0  0  0  0  0  4  0  0  0  0  0  0
  -13.2344   11.1393  -30.5139 C   0  0  0  0  0  0  0  0  0  0  0  0
 11  1  1  0
  1 12  2  0
  1 13  1  0
 10  2  2  0
  2 14  1  0
  2 15  1  0
 15  3  2  0
  3 16  1  0
  4  5  1  0
 16  4  2  0
  5 17  2  0
  6  8  1  0
  6 13  1  1
  6 18  1  0
 18  7  1  0
  7 19  1  0
  8 20  1  0
 10  9  1  0
 10 11  1  0
 13 14  1  0
 15 17  1  0
 19 20  1  0
M  CHG  1  19   1
M  END
$$$$
