
     RDKit          3D

 20 22  0  0  0  0  0  0  0  0999 V2000
   -5.1671    7.4340  -23.1292 C   0  0  0  0  0  0  0  0  0  0  0  0
   -4.2599    7.2548  -20.4514 C   0  0  0  0  0  0  0  0  0  0  0  0
   -2.5534    7.7706  -18.7518 C   0  0  0  0  0  0  0  0  0  0  0  0
   -2.6795    6.9592  -16.5684 N   0  0  0  0  0  0  0  0  0  0  0  0
   -3.8217    6.3124  -16.8438 C   0  0  0  0  0  0  0  0  0  0  0  0
   -3.8563    5.3856  -23.6857 C   0  0  2  0  0  0  0  0  0  0  0  0
   -4.2273    3.1066  -24.4372 C   0  0  0  0  0  0  0  0  0  0  0  0
   -2.4223    5.4467  -24.0639 C   0  0  0  0  0  0  0  0  0  0  0  0
   -5.4950    9.2856  -19.7873 C   0  0  0  0  0  0  0  0  0  0  0  0
   -5.0555    8.2486  -20.7958 C   0  0  0  0  0  0  0  0  0  0  0  0
   -5.5736    8.4540  -22.1673 C   0  0  0  0  0  0  0  0  0  0  0  0
   -5.5369    7.4157  -24.3368 O   0  0  0  0  0  0  0  0  0  0  0  0
   -4.3073    6.3770  -22.7377 N   0  0  0  0  0  0  0  0  0  0  0  0
   -3.8610    6.2889  -21.4135 N   0  0  0  0  0  0  0  0  0  0  0  0
   -3.7389    7.1176  -19.0911 C   0  0  0  0  0  0  0  0  0  0  0  0
   -2.0243    7.6910  -17.4884 C   0  0  0  0  0  0  0  0  0  0  0  0
   -4.3584    6.3869  -18.1019 C   0  0  0  0  0  0  0  0  0  0  0  0
   -4.2456    3.9728  -23.2060 C   0  0  0  0  0  0  0  0  0  0  0  0
   -3.2025    3.5014  -25.3748 N   0  0  0  0  0  4  0  0  0  0  0  0
   -2.0738    4.0498  -24.6078 C   0  0  0  0  0  0  0  0  0  0  0  0
 11  1  1  0
  1 12  2  0
  1 13  1  0
 10  2  2  0
  2 14  1  0
  2 15  1  0
 15  3  2  0
  3 16  1  0
  4  5  1  0
 16  4  2  0
  5 17  2  0
  6  8  1  0
  6 13  1  1
  6 18  1  0
 18  7  1  0
  7 19  1  0
  8 20  1  0
 10  9  1  0
 10 11  1  0
 13 14  1  0
 15 17  1  0
 19 20  1  0
M  CHG  1  19   1
M  END
$$$$
