
     RDKit          3D

 20 22  0  0  0  0  0  0  0  0999 V2000
    5.0818    2.7770   -8.3506 C   0  0  0  0  0  0  0  0  0  0  0  0
    3.5208    4.9481   -9.2863 C   0  0  0  0  0  0  0  0  0  0  0  0
    1.6639    6.5441   -9.0184 C   0  0  0  0  0  0  0  0  0  0  0  0
    1.0678    8.0591  -10.6890 N   0  0  0  0  0  0  0  0  0  0  0  0
    2.0335    7.5944  -11.4954 C   0  0  0  0  0  0  0  0  0  0  0  0
    4.5230    1.5112  -10.4265 C   0  0  2  0  0  0  0  0  0  0  0  0
    5.8149    0.4738  -12.2017 C   0  0  0  0  0  0  0  0  0  0  0  0
    3.2413    0.8338  -10.7454 C   0  0  0  0  0  0  0  0  0  0  0  0
    3.9829    6.2868   -7.2652 C   0  0  0  0  0  0  0  0  0  0  0  0
    4.1151    5.0419   -8.1127 C   0  0  0  0  0  0  0  0  0  0  0  0
    4.9365    3.9651   -7.5149 C   0  0  0  0  0  0  0  0  0  0  0  0
    5.7734    1.7697   -8.0307 O   0  0  0  0  0  0  0  0  0  0  0  0
    4.4299    2.6963   -9.6069 N   0  0  0  0  0  0  0  0  0  0  0  0
    3.6601    3.7708  -10.0687 N   0  0  0  0  0  0  0  0  0  0  0  0
    2.6833    6.0242   -9.8168 C   0  0  0  0  0  0  0  0  0  0  0  0
    0.8562    7.5632   -9.4559 C   0  0  0  0  0  0  0  0  0  0  0  0
    2.8459    6.5780  -11.0670 C   0  0  0  0  0  0  0  0  0  0  0  0
    5.3283    1.8099  -11.7071 C   0  0  0  0  0  0  0  0  0  0  0  0
    4.8697   -0.5873  -11.9453 N   0  0  0  0  0  4  0  0  0  0  0  0
    3.5171   -0.0126  -12.0007 C   0  0  0  0  0  0  0  0  0  0  0  0
 11  1  1  0
  1 12  2  0
  1 13  1  0
 10  2  2  0
  2 14  1  0
  2 15  1  0
 15  3  2  0
  3 16  1  0
  4  5  1  0
 16  4  2  0
  5 17  2  0
  6  8  1  0
  6 13  1  6
  6 18  1  0
 18  7  1  0
  7 19  1  0
  8 20  1  0
 10  9  1  0
 10 11  1  0
 13 14  1  0
 15 17  1  0
 19 20  1  0
M  CHG  1  19   1
M  END
$$$$
