
     RDKit          3D

 20 22  0  0  0  0  0  0  0  0999 V2000
   -5.2644    4.2461  -21.5662 C   0  0  0  0  0  0  0  0  0  0  0  0
   -4.4803    6.8663  -20.8275 C   0  0  0  0  0  0  0  0  0  0  0  0
   -2.9037    8.7456  -21.0505 C   0  0  0  0  0  0  0  0  0  0  0  0
   -3.2647   10.8080  -20.0221 N   0  0  0  0  0  0  0  0  0  0  0  0
   -4.4119   10.3706  -19.4822 C   0  0  0  0  0  0  0  0  0  0  0  0
   -4.9897    4.8660  -23.9670 C   0  0  2  0  0  0  0  0  0  0  0  0
   -4.8265    5.8178  -26.1950 C   0  0  0  0  0  0  0  0  0  0  0  0
   -5.8967    3.7506  -24.3363 C   0  0  0  0  0  0  0  0  0  0  0  0
   -4.7407    6.3784  -18.4224 C   0  0  0  0  0  0  0  0  0  0  0  0
   -4.7964    5.9998  -19.8849 C   0  0  0  0  0  0  0  0  0  0  0  0
   -5.2391    4.6128  -20.1534 C   0  0  0  0  0  0  0  0  0  0  0  0
   -5.5778    3.0990  -21.9918 O   0  0  0  0  0  0  0  0  0  0  0  0
   -4.9250    5.1956  -22.5627 N   0  0  0  0  0  0  0  0  0  0  0  0
   -4.5362    6.4897  -22.1960 N   0  0  0  0  0  0  0  0  0  0  0  0
   -4.0887    8.2408  -20.5141 C   0  0  0  0  0  0  0  0  0  0  0  0
   -2.4924   10.0310  -20.8040 C   0  0  0  0  0  0  0  0  0  0  0  0
   -4.8314    9.0892  -19.7236 C   0  0  0  0  0  0  0  0  0  0  0  0
   -5.2937    6.1288  -24.7980 C   0  0  0  0  0  0  0  0  0  0  0  0
   -5.0147    4.4292  -26.5437 N   0  0  0  0  0  4  0  0  0  0  0  0
   -6.2054    3.9407  -25.8319 C   0  0  0  0  0  0  0  0  0  0  0  0
 11  1  1  0
  1 12  2  0
  1 13  1  0
 10  2  2  0
  2 14  1  0
  2 15  1  0
 15  3  2  0
  3 16  1  0
  4  5  1  0
 16  4  2  0
  5 17  2  0
  6  8  1  0
  6 13  1  1
  6 18  1  0
 18  7  1  0
  7 19  1  0
  8 20  1  0
 10  9  1  0
 10 11  1  0
 13 14  1  0
 15 17  1  0
 19 20  1  0
M  CHG  1  19   1
M  END
$$$$
