
     RDKit          3D

 20 22  0  0  0  0  0  0  0  0999 V2000
   -5.4321    4.3663  -21.7730 C   0  0  0  0  0  0  0  0  0  0  0  0
   -4.3037    6.6474  -20.5282 C   0  0  0  0  0  0  0  0  0  0  0  0
   -2.9221    7.7451  -18.8098 C   0  0  0  0  0  0  0  0  0  0  0  0
   -2.5431   10.0468  -18.7941 N   0  0  0  0  0  0  0  0  0  0  0  0
   -3.2995   10.2081  -19.8899 C   0  0  0  0  0  0  0  0  0  0  0  0
   -4.6236    5.2002  -23.9809 C   0  0  2  0  0  0  0  0  0  0  0  0
   -3.1390    4.4240  -25.7386 C   0  0  0  0  0  0  0  0  0  0  0  0
   -5.3096    6.2335  -24.7964 C   0  0  0  0  0  0  0  0  0  0  0  0
   -5.0738    5.9378  -18.2936 C   0  0  0  0  0  0  0  0  0  0  0  0
   -4.9416    5.7607  -19.7891 C   0  0  0  0  0  0  0  0  0  0  0  0
   -5.5872    4.5443  -20.3324 C   0  0  0  0  0  0  0  0  0  0  0  0
   -5.8791    3.3736  -22.4134 O   0  0  0  0  0  0  0  0  0  0  0  0
   -4.7464    5.3348  -22.5485 N   0  0  0  0  0  0  0  0  0  0  0  0
   -4.1878    6.4609  -21.9317 N   0  0  0  0  0  0  0  0  0  0  0  0
   -3.7178    7.8571  -19.9506 C   0  0  0  0  0  0  0  0  0  0  0  0
   -2.3342    8.8419  -18.2321 C   0  0  0  0  0  0  0  0  0  0  0  0
   -3.8895    9.1189  -20.4747 C   0  0  0  0  0  0  0  0  0  0  0  0
   -3.1396    5.0714  -24.3794 C   0  0  0  0  0  0  0  0  0  0  0  0
   -4.2678    4.8284  -26.5433 N   0  0  0  0  0  4  0  0  0  0  0  0
   -4.6185    6.2073  -26.1712 C   0  0  0  0  0  0  0  0  0  0  0  0
 11  1  1  0
  1 12  2  0
  1 13  1  0
 10  2  2  0
  2 14  1  0
  2 15  1  0
 15  3  2  0
  3 16  1  0
  4  5  1  0
 16  4  2  0
  5 17  2  0
  6  8  1  0
  6 13  1  1
  6 18  1  0
 18  7  1  0
  7 19  1  0
  8 20  1  0
 10  9  1  0
 10 11  1  0
 13 14  1  0
 15 17  1  0
 19 20  1  0
M  CHG  1  19   1
M  END
$$$$
