
     RDKit          3D

 20 22  0  0  0  0  0  0  0  0999 V2000
   -5.4400    4.3884  -21.2272 C   0  0  0  0  0  0  0  0  0  0  0  0
   -4.3587    6.8871  -20.4443 C   0  0  0  0  0  0  0  0  0  0  0  0
   -2.4699    8.4677  -20.4076 C   0  0  0  0  0  0  0  0  0  0  0  0
   -2.6665   10.6298  -19.5544 N   0  0  0  0  0  0  0  0  0  0  0  0
   -3.9554   10.4224  -19.2468 C   0  0  0  0  0  0  0  0  0  0  0  0
   -4.9316    4.9403  -23.6064 C   0  0  2  0  0  0  0  0  0  0  0  0
   -3.5268    4.2159  -25.4498 C   0  0  0  0  0  0  0  0  0  0  0  0
   -5.9231    5.6676  -24.4379 C   0  0  0  0  0  0  0  0  0  0  0  0
   -4.8354    6.4641  -18.0602 C   0  0  0  0  0  0  0  0  0  0  0  0
   -4.8482    6.0809  -19.5225 C   0  0  0  0  0  0  0  0  0  0  0  0
   -5.4557    4.7633  -19.8165 C   0  0  0  0  0  0  0  0  0  0  0  0
   -5.8773    3.2893  -21.6700 O   0  0  0  0  0  0  0  0  0  0  0  0
   -4.9129    5.2731  -22.2015 N   0  0  0  0  0  0  0  0  0  0  0  0
   -4.3774    6.5070  -21.8129 N   0  0  0  0  0  0  0  0  0  0  0  0
   -3.8062    8.1997  -20.1088 C   0  0  0  0  0  0  0  0  0  0  0  0
   -1.9006    9.6847  -20.1301 C   0  0  0  0  0  0  0  0  0  0  0  0
   -4.5331    9.2111  -19.5213 C   0  0  0  0  0  0  0  0  0  0  0  0
   -3.5138    5.0572  -24.2013 C   0  0  0  0  0  0  0  0  0  0  0  0
   -4.8039    4.2467  -26.1230 N   0  0  0  0  0  4  0  0  0  0  0  0
   -5.4097    5.5655  -25.8851 C   0  0  0  0  0  0  0  0  0  0  0  0
 11  1  1  0
  1 12  2  0
  1 13  1  0
 10  2  2  0
  2 14  1  0
  2 15  1  0
 15  3  2  0
  3 16  1  0
  4  5  1  0
 16  4  2  0
  5 17  2  0
  6  8  1  0
  6 13  1  1
  6 18  1  0
 18  7  1  0
  7 19  1  0
  8 20  1  0
 10  9  1  0
 10 11  1  0
 13 14  1  0
 15 17  1  0
 19 20  1  0
M  CHG  1  19   1
M  END
$$$$
