
     RDKit          3D

 20 22  0  0  0  0  0  0  0  0999 V2000
   -5.5885    4.6200  -20.6344 C   0  0  0  0  0  0  0  0  0  0  0  0
   -3.9042    6.8700  -20.2786 C   0  0  0  0  0  0  0  0  0  0  0  0
   -3.1879    9.0933  -21.0602 C   0  0  0  0  0  0  0  0  0  0  0  0
   -1.4580   10.2791  -20.0390 N   0  0  0  0  0  0  0  0  0  0  0  0
   -1.2607    9.2883  -19.1567 C   0  0  0  0  0  0  0  0  0  0  0  0
   -4.6475    4.3070  -22.9235 C   0  0  2  0  0  0  0  0  0  0  0  0
   -3.5741    2.4492  -24.0605 C   0  0  0  0  0  0  0  0  0  0  0  0
   -4.9002    5.1154  -24.1426 C   0  0  0  0  0  0  0  0  0  0  0  0
   -4.7767    7.2950  -18.0095 C   0  0  0  0  0  0  0  0  0  0  0  0
   -4.7251    6.5211  -19.3071 C   0  0  0  0  0  0  0  0  0  0  0  0
   -5.6631    5.3787  -19.3894 C   0  0  0  0  0  0  0  0  0  0  0  0
   -6.2809    3.5918  -20.8766 O   0  0  0  0  0  0  0  0  0  0  0  0
   -4.7017    5.0163  -21.6670 N   0  0  0  0  0  0  0  0  0  0  0  0
   -3.8688    6.1276  -21.4891 N   0  0  0  0  0  0  0  0  0  0  0  0
   -3.0249    8.0340  -20.1667 C   0  0  0  0  0  0  0  0  0  0  0  0
   -2.4033   10.2169  -20.9949 C   0  0  0  0  0  0  0  0  0  0  0  0
   -2.0400    8.1632  -19.2130 C   0  0  0  0  0  0  0  0  0  0  0  0
   -3.3231    3.5258  -23.0385 C   0  0  0  0  0  0  0  0  0  0  0  0
   -4.4734    2.8789  -25.1054 N   0  0  0  0  0  4  0  0  0  0  0  0
   -4.2782    4.3227  -25.3058 C   0  0  0  0  0  0  0  0  0  0  0  0
 11  1  1  0
  1 12  2  0
  1 13  1  0
 10  2  2  0
  2 14  1  0
  2 15  1  0
 15  3  2  0
  3 16  1  0
  4  5  1  0
 16  4  2  0
  5 17  2  0
  6  8  1  0
  6 13  1  1
  6 18  1  0
 18  7  1  0
  7 19  1  0
  8 20  1  0
 10  9  1  0
 10 11  1  0
 13 14  1  0
 15 17  1  0
 19 20  1  0
M  CHG  1  19   1
M  END
$$$$
