
     RDKit          3D

 20 22  0  0  0  0  0  0  0  0999 V2000
   -5.2642    5.4083  -23.6444 C   0  0  0  0  0  0  0  0  0  0  0  0
   -4.3582    6.8154  -21.3585 C   0  0  0  0  0  0  0  0  0  0  0  0
   -4.2355    7.1847  -18.9263 C   0  0  0  0  0  0  0  0  0  0  0  0
   -2.8756    8.8263  -17.9790 N   0  0  0  0  0  0  0  0  0  0  0  0
   -2.4501    9.2139  -19.1904 C   0  0  0  0  0  0  0  0  0  0  0  0
   -2.8931    5.0100  -24.3100 C   0  0  2  0  0  0  0  0  0  0  0  0
   -1.1505    3.3311  -24.5128 C   0  0  0  0  0  0  0  0  0  0  0  0
   -2.3101    5.9636  -25.2867 C   0  0  0  0  0  0  0  0  0  0  0  0
   -6.6612    7.2935  -20.6114 C   0  0  0  0  0  0  0  0  0  0  0  0
   -5.6548    6.6979  -21.5694 C   0  0  0  0  0  0  0  0  0  0  0  0
   -6.2414    6.0041  -22.7382 C   0  0  0  0  0  0  0  0  0  0  0  0
   -5.5702    4.7449  -24.6748 O   0  0  0  0  0  0  0  0  0  0  0  0
   -3.8751    5.5513  -23.4003 N   0  0  0  0  0  0  0  0  0  0  0  0
   -3.4288    6.2457  -22.2693 N   0  0  0  0  0  0  0  0  0  0  0  0
   -3.8253    7.5479  -20.2096 C   0  0  0  0  0  0  0  0  0  0  0  0
   -3.7590    7.8250  -17.8104 C   0  0  0  0  0  0  0  0  0  0  0  0
   -2.9190    8.5798  -20.3104 C   0  0  0  0  0  0  0  0  0  0  0  0
   -1.7893    4.2718  -23.5261 C   0  0  0  0  0  0  0  0  0  0  0  0
   -1.1111    3.8763  -25.8494 N   0  0  0  0  0  4  0  0  0  0  0  0
   -0.9793    5.3369  -25.7391 C   0  0  0  0  0  0  0  0  0  0  0  0
 11  1  1  0
  1 12  2  0
  1 13  1  0
 10  2  2  0
  2 14  1  0
  2 15  1  0
 15  3  2  0
  3 16  1  0
  4  5  1  0
 16  4  2  0
  5 17  2  0
  6  8  1  0
  6 13  1  1
  6 18  1  0
 18  7  1  0
  7 19  1  0
  8 20  1  0
 10  9  1  0
 10 11  1  0
 13 14  1  0
 15 17  1  0
 19 20  1  0
M  CHG  1  19   1
M  END
$$$$
