
     RDKit          3D

 20 22  0  0  0  0  0  0  0  0999 V2000
   -4.9690    4.0456  -21.8557 C   0  0  0  0  0  0  0  0  0  0  0  0
   -4.5941    6.5400  -20.5658 C   0  0  0  0  0  0  0  0  0  0  0  0
   -3.5878    7.9805  -18.8398 C   0  0  0  0  0  0  0  0  0  0  0  0
   -3.9511   10.2836  -18.7674 N   0  0  0  0  0  0  0  0  0  0  0  0
   -4.7450   10.2216  -19.8466 C   0  0  0  0  0  0  0  0  0  0  0  0
   -4.3725    5.1082  -24.0326 C   0  0  2  0  0  0  0  0  0  0  0  0
   -2.6969    5.3457  -25.7740 C   0  0  0  0  0  0  0  0  0  0  0  0
   -5.5339    5.4852  -24.8765 C   0  0  0  0  0  0  0  0  0  0  0  0
   -5.1909    5.6071  -18.3604 C   0  0  0  0  0  0  0  0  0  0  0  0
   -4.9674    5.4962  -19.8514 C   0  0  0  0  0  0  0  0  0  0  0  0
   -5.2129    4.1516  -20.4203 C   0  0  0  0  0  0  0  0  0  0  0  0
   -5.0870    2.9742  -22.5141 O   0  0  0  0  0  0  0  0  0  0  0  0
   -4.5727    5.1822  -22.6045 N   0  0  0  0  0  0  0  0  0  0  0  0
   -4.3862    6.4140  -21.9654 N   0  0  0  0  0  0  0  0  0  0  0  0
   -4.4047    7.8603  -19.9646 C   0  0  0  0  0  0  0  0  0  0  0  0
   -3.3611    9.1943  -18.2416 C   0  0  0  0  0  0  0  0  0  0  0  0
   -4.9764    9.0146  -20.4515 C   0  0  0  0  0  0  0  0  0  0  0  0
   -3.1114    5.8983  -24.4363 C   0  0  0  0  0  0  0  0  0  0  0  0
   -3.8267    4.9549  -26.5839 N   0  0  0  0  0  4  0  0  0  0  0  0
   -4.9500    5.8450  -26.2542 C   0  0  0  0  0  0  0  0  0  0  0  0
 11  1  1  0
  1 12  2  0
  1 13  1  0
 10  2  2  0
  2 14  1  0
  2 15  1  0
 15  3  2  0
  3 16  1  0
  4  5  1  0
 16  4  2  0
  5 17  2  0
  6  8  1  0
  6 13  1  1
  6 18  1  0
 18  7  1  0
  7 19  1  0
  8 20  1  0
 10  9  1  0
 10 11  1  0
 13 14  1  0
 15 17  1  0
 19 20  1  0
M  CHG  1  19   1
M  END
$$$$
