
     RDKit          3D

 20 22  0  0  0  0  0  0  0  0999 V2000
   -1.3639    7.8544  -21.8207 C   0  0  0  0  0  0  0  0  0  0  0  0
   -3.8037    7.5816  -20.4067 C   0  0  0  0  0  0  0  0  0  0  0  0
   -6.2480    7.8739  -20.3256 C   0  0  0  0  0  0  0  0  0  0  0  0
   -7.5444    7.0707  -18.5604 N   0  0  0  0  0  0  0  0  0  0  0  0
   -6.4561    6.5887  -17.9423 C   0  0  0  0  0  0  0  0  0  0  0  0
   -2.4145    6.7553  -23.7985 C   0  0  2  0  0  0  0  0  0  0  0  0
   -3.4403    6.9303  -25.9925 C   0  0  0  0  0  0  0  0  0  0  0  0
   -1.9455    5.3555  -23.9531 C   0  0  0  0  0  0  0  0  0  0  0  0
   -2.8672    8.6333  -18.3801 C   0  0  0  0  0  0  0  0  0  0  0  0
   -2.7698    8.1364  -19.8045 C   0  0  0  0  0  0  0  0  0  0  0  0
   -1.4426    8.3118  -20.4366 C   0  0  0  0  0  0  0  0  0  0  0  0
   -0.3295    7.9533  -22.5387 O   0  0  0  0  0  0  0  0  0  0  0  0
   -2.4868    7.2566  -22.4464 N   0  0  0  0  0  0  0  0  0  0  0  0
   -3.6924    7.1240  -21.7469 N   0  0  0  0  0  0  0  0  0  0  0  0
   -5.0844    7.3914  -19.7254 C   0  0  0  0  0  0  0  0  0  0  0  0
   -7.4790    7.7123  -19.7417 C   0  0  0  0  0  0  0  0  0  0  0  0
   -5.2229    6.7440  -18.5180 C   0  0  0  0  0  0  0  0  0  0  0  0
   -3.7585    6.9749  -24.5217 C   0  0  0  0  0  0  0  0  0  0  0  0
   -2.3806    5.9988  -26.3000 N   0  0  0  0  0  4  0  0  0  0  0  0
   -2.4526    4.8947  -25.3312 C   0  0  0  0  0  0  0  0  0  0  0  0
 11  1  1  0
  1 12  2  0
  1 13  1  0
 10  2  2  0
  2 14  1  0
  2 15  1  0
 15  3  2  0
  3 16  1  0
  4  5  1  0
 16  4  2  0
  5 17  2  0
  6  8  1  0
  6 13  1  1
  6 18  1  0
 18  7  1  0
  7 19  1  0
  8 20  1  0
 10  9  1  0
 10 11  1  0
 13 14  1  0
 15 17  1  0
 19 20  1  0
M  CHG  1  19   1
M  END
$$$$
