
     RDKit          3D

 20 22  0  0  0  0  0  0  0  0999 V2000
   -5.3653    8.0825  -22.9496 C   0  0  0  0  0  0  0  0  0  0  0  0
   -4.2667    7.6674  -20.3715 C   0  0  0  0  0  0  0  0  0  0  0  0
   -4.4122    6.8540  -18.0511 C   0  0  0  0  0  0  0  0  0  0  0  0
   -2.5838    6.8758  -16.6026 N   0  0  0  0  0  0  0  0  0  0  0  0
   -1.8035    7.4180  -17.5492 C   0  0  0  0  0  0  0  0  0  0  0  0
   -3.9064    6.2643  -23.8383 C   0  0  2  0  0  0  0  0  0  0  0  0
   -4.0569    4.0479  -24.8187 C   0  0  0  0  0  0  0  0  0  0  0  0
   -2.5358    6.5610  -24.3247 C   0  0  0  0  0  0  0  0  0  0  0  0
   -5.6414    9.4626  -19.3826 C   0  0  0  0  0  0  0  0  0  0  0  0
   -5.1745    8.6091  -20.5398 C   0  0  0  0  0  0  0  0  0  0  0  0
   -5.8011    8.9284  -21.8425 C   0  0  0  0  0  0  0  0  0  0  0  0
   -5.8123    8.1759  -24.1272 O   0  0  0  0  0  0  0  0  0  0  0  0
   -4.3846    7.0792  -22.7464 N   0  0  0  0  0  0  0  0  0  0  0  0
   -3.8437    6.8741  -21.4713 N   0  0  0  0  0  0  0  0  0  0  0  0
   -3.6445    7.4171  -19.0711 C   0  0  0  0  0  0  0  0  0  0  0  0
   -3.8799    6.5830  -16.8159 C   0  0  0  0  0  0  0  0  0  0  0  0
   -2.3254    7.6909  -18.7859 C   0  0  0  0  0  0  0  0  0  0  0  0
   -4.0643    4.7689  -23.4971 C   0  0  0  0  0  0  0  0  0  0  0  0
   -3.1874    4.6760  -25.7854 N   0  0  0  0  0  4  0  0  0  0  0  0
   -2.0678    5.2903  -25.0559 C   0  0  0  0  0  0  0  0  0  0  0  0
 11  1  1  0
  1 12  2  0
  1 13  1  0
 10  2  2  0
  2 14  1  0
  2 15  1  0
 15  3  2  0
  3 16  1  0
  4  5  1  0
 16  4  2  0
  5 17  2  0
  6  8  1  0
  6 13  1  1
  6 18  1  0
 18  7  1  0
  7 19  1  0
  8 20  1  0
 10  9  1  0
 10 11  1  0
 13 14  1  0
 15 17  1  0
 19 20  1  0
M  CHG  1  19   1
M  END
$$$$
