
     RDKit          3D

 12 12  0  0  0  0  0  0  0  0999 V2000
  -19.3594   -6.9079   -1.5926 C   0  0  2  0  0  0  0  0  0  0  0  0
  -19.2055   -7.4159   -2.9802 C   0  0  2  0  0  0  0  0  0  0  0  0
  -18.7196   -8.7944   -3.1345 C   0  0  1  0  0  0  0  0  0  0  0  0
  -18.3653   -9.5325   -1.9031 C   0  0  1  0  0  0  0  0  0  0  0  0
  -17.0411  -10.2924   -2.0709 C   0  0  0  0  0  0  0  0  0  0  0  0
  -19.3463   -7.9781   -0.5349 C   0  0  2  0  0  0  0  0  0  0  0  0
  -19.1378   -7.3352    0.6966 O   0  0  0  0  0  0  0  0  0  0  0  0
  -20.5269   -6.1658   -1.4213 O   0  0  0  0  0  0  0  0  0  0  0  0
  -18.3888   -6.4926   -3.6756 O   0  0  0  0  0  0  0  0  0  0  0  0
  -19.6445   -9.5819   -3.8600 O   0  0  0  0  0  0  0  0  0  0  0  0
  -18.2142   -8.7555   -0.7724 O   0  0  0  0  0  0  0  0  0  0  0  0
  -16.8984  -11.0374   -0.8813 O   0  0  0  0  0  0  0  0  0  0  0  0
  2  1  1  0
  1  6  1  0
  1  8  1  6
  3  2  1  0
  2  9  1  6
  4  3  1  0
  3 10  1  1
  5  4  1  0
  4 11  1  1
  5 12  1  6
  6  7  1  1
  6 11  1  0
M  END
$$$$
