
     RDKit          3D

 12 12  0  0  0  0  0  0  0  0999 V2000
  -18.3153   -7.8196   -3.6282 C   0  0  2  0  0  0  0  0  0  0  0  0
  -18.0875   -6.5821   -2.8382 C   0  0  2  0  0  0  0  0  0  0  0  0
  -19.0798   -6.2612   -1.8027 C   0  0  1  0  0  0  0  0  0  0  0  0
  -20.2490   -7.1582   -1.6798 C   0  0  1  0  0  0  0  0  0  0  0  0
  -21.5499   -6.3582   -1.5165 C   0  0  0  0  0  0  0  0  0  0  0  0
  -19.3219   -8.7629   -3.0274 C   0  0  2  0  0  0  0  0  0  0  0  0
  -19.6852   -9.6716   -4.0353 O   0  0  0  0  0  0  0  0  0  0  0  0
  -17.1420   -8.5415   -3.8413 O   0  0  0  0  0  0  0  0  0  0  0  0
  -17.9317   -5.5198   -3.7605 O   0  0  0  0  0  0  0  0  0  0  0  0
  -18.4727   -6.1647   -0.5284 O   0  0  0  0  0  0  0  0  0  0  0  0
  -20.4580   -8.0049   -2.7496 O   0  0  0  0  0  0  0  0  0  0  0  0
  -22.0982   -6.2905   -2.8147 O   0  0  0  0  0  0  0  0  0  0  0  0
  2  1  1  0
  1  6  1  0
  1  8  1  1
  3  2  1  0
  2  9  1  6
  4  3  1  0
  3 10  1  1
  5  4  1  0
  4 11  1  6
  5 12  1  6
  6  7  1  6
  6 11  1  0
M  END
$$$$
