
     RDKit          3D

 12 12  0  0  0  0  0  0  0  0999 V2000
  -18.0142   -7.6403   -2.0953 C   0  0  2  0  0  0  0  0  0  0  0  0
  -18.8083   -7.8635   -3.3400 C   0  0  2  0  0  0  0  0  0  0  0  0
  -19.3408   -9.3015   -3.2828 C   0  0  1  0  0  0  0  0  0  0  0  0
  -20.1285   -9.3231   -1.9889 C   0  0  1  0  0  0  0  0  0  0  0  0
  -21.1161  -10.4589   -1.9528 C   0  0  0  0  0  0  0  0  0  0  0  0
  -18.1009   -8.6888   -1.0642 C   0  0  2  0  0  0  0  0  0  0  0  0
  -17.0155   -9.5857   -1.1991 O   0  0  0  0  0  0  0  0  0  0  0  0
  -18.3470   -6.3736   -1.5984 O   0  0  0  0  0  0  0  0  0  0  0  0
  -18.1307   -7.6115   -4.5054 O   0  0  0  0  0  0  0  0  0  0  0  0
  -20.1048   -9.6047   -4.3823 O   0  0  0  0  0  0  0  0  0  0  0  0
  -19.2334   -9.4142   -0.9678 O   0  0  0  0  0  0  0  0  0  0  0  0
  -20.4418  -11.6776   -1.9347 O   0  0  0  0  0  0  0  0  0  0  0  0
  2  1  1  0
  1  6  1  0
  1  8  1  1
  3  2  1  0
  2  9  1  6
  4  3  1  0
  3 10  1  6
  4  5  1  6
  4 11  1  0
 12  5  1  0
  6  7  1  6
  6 11  1  0
M  END
$$$$
