
     RDKit          3D

 12 12  0  0  0  0  0  0  0  0999 V2000
  -18.6888   -7.9721   -2.3926 C   0  0  2  0  0  0  0  0  0  0  0  0
  -19.7242   -7.8179   -3.4576 C   0  0  2  0  0  0  0  0  0  0  0  0
  -19.1095   -8.3415   -4.7625 C   0  0  1  0  0  0  0  0  0  0  0  0
  -18.7325   -9.7670   -4.4150 C   0  0  1  0  0  0  0  0  0  0  0  0
  -18.5517  -10.6150   -5.6459 C   0  0  0  0  0  0  0  0  0  0  0  0
  -17.4854   -8.7414   -2.7531 C   0  0  2  0  0  0  0  0  0  0  0  0
  -16.4570   -7.8605   -3.1617 O   0  0  0  0  0  0  0  0  0  0  0  0
  -19.3236   -8.4772   -1.2507 O   0  0  0  0  0  0  0  0  0  0  0  0
  -20.2198   -6.5467   -3.5958 O   0  0  0  0  0  0  0  0  0  0  0  0
  -19.9935   -8.2593   -5.8096 O   0  0  0  0  0  0  0  0  0  0  0  0
  -17.5904   -9.7185   -3.6764 O   0  0  0  0  0  0  0  0  0  0  0  0
  -17.4932  -10.1284   -6.4095 O   0  0  0  0  0  0  0  0  0  0  0  0
  2  1  1  0
  1  6  1  0
  1  8  1  1
  3  2  1  0
  2  9  1  6
  4  3  1  0
  3 10  1  6
  4  5  1  6
  4 11  1  0
 12  5  1  0
  6  7  1  6
  6 11  1  0
M  END
$$$$
