
     RDKit          3D

 12 12  0  0  0  0  0  0  0  0999 V2000
  -17.7590   -7.9054   -2.7623 C   0  0  2  0  0  0  0  0  0  0  0  0
  -19.0701   -7.3270   -3.1542 C   0  0  2  0  0  0  0  0  0  0  0  0
  -20.2639   -7.8780   -2.4973 C   0  0  1  0  0  0  0  0  0  0  0  0
  -20.0649   -9.0001   -1.5550 C   0  0  1  0  0  0  0  0  0  0  0  0
  -21.1135  -10.1014   -1.7709 C   0  0  0  0  0  0  0  0  0  0  0  0
  -17.7920   -8.7155   -1.4948 C   0  0  2  0  0  0  0  0  0  0  0  0
  -16.6074   -9.4699   -1.4591 O   0  0  0  0  0  0  0  0  0  0  0  0
  -16.7699   -6.9347   -2.6118 O   0  0  0  0  0  0  0  0  0  0  0  0
  -19.1615   -7.4145   -4.5639 O   0  0  0  0  0  0  0  0  0  0  0  0
  -20.9846   -6.8665   -1.8196 O   0  0  0  0  0  0  0  0  0  0  0  0
  -18.8375   -9.6265   -1.6344 O   0  0  0  0  0  0  0  0  0  0  0  0
  -20.3708  -11.2375   -2.1558 O   0  0  0  0  0  0  0  0  0  0  0  0
  2  1  1  0
  1  6  1  0
  1  8  1  1
  3  2  1  0
  2  9  1  6
  4  3  1  0
  3 10  1  1
  5  4  1  0
  4 11  1  6
  5 12  1  6
  6  7  1  6
  6 11  1  0
M  END
$$$$
