
     RDKit          3D

 12 12  0  0  0  0  0  0  0  0999 V2000
  -19.0788   -7.8640   -2.1982 C   0  0  2  0  0  0  0  0  0  0  0  0
  -19.7231   -7.5863   -3.5164 C   0  0  2  0  0  0  0  0  0  0  0  0
  -18.8803   -8.2918   -4.5872 C   0  0  1  0  0  0  0  0  0  0  0  0
  -18.8997   -9.7388   -4.1390 C   0  0  1  0  0  0  0  0  0  0  0  0
  -18.5484  -10.6782   -5.2619 C   0  0  0  0  0  0  0  0  0  0  0  0
  -17.9954   -8.8622   -2.1942 C   0  0  2  0  0  0  0  0  0  0  0  0
  -16.7433   -8.2120   -2.2946 O   0  0  0  0  0  0  0  0  0  0  0  0
  -20.0940   -8.1738   -1.2841 O   0  0  0  0  0  0  0  0  0  0  0  0
  -19.9038   -6.2562   -3.7973 O   0  0  0  0  0  0  0  0  0  0  0  0
  -19.4014   -8.1114   -5.8444 O   0  0  0  0  0  0  0  0  0  0  0  0
  -18.0242   -9.8570   -3.1038 O   0  0  0  0  0  0  0  0  0  0  0  0
  -17.3034  -10.3458   -5.7907 O   0  0  0  0  0  0  0  0  0  0  0  0
  2  1  1  0
  1  6  1  0
  1  8  1  1
  3  2  1  0
  2  9  1  6
  4  3  1  0
  3 10  1  6
  4  5  1  6
  4 11  1  0
 12  5  1  0
  6  7  1  6
  6 11  1  0
M  END
$$$$
