
     RDKit          3D

 12 12  0  0  0  0  0  0  0  0999 V2000
  -18.9420   -7.6518   -2.4375 C   0  0  2  0  0  0  0  0  0  0  0  0
  -19.5723   -7.3525   -3.7578 C   0  0  2  0  0  0  0  0  0  0  0  0
  -18.7595   -8.0986   -4.8244 C   0  0  1  0  0  0  0  0  0  0  0  0
  -18.8420   -9.5413   -4.3697 C   0  0  1  0  0  0  0  0  0  0  0  0
  -18.5304  -10.5001   -5.4879 C   0  0  0  0  0  0  0  0  0  0  0  0
  -17.9029   -8.6959   -2.4276 C   0  0  2  0  0  0  0  0  0  0  0  0
  -16.6237   -8.1009   -2.5292 O   0  0  0  0  0  0  0  0  0  0  0  0
  -19.9707   -7.9133   -1.5234 O   0  0  0  0  0  0  0  0  0  0  0  0
  -19.6950   -6.0171   -4.0450 O   0  0  0  0  0  0  0  0  0  0  0  0
  -19.2709   -7.9016   -6.0831 O   0  0  0  0  0  0  0  0  0  0  0  0
  -17.9736   -9.6927   -3.3328 O   0  0  0  0  0  0  0  0  0  0  0  0
  -17.3457  -10.1285   -6.1193 O   0  0  0  0  0  0  0  0  0  0  0  0
  2  1  1  0
  1  6  1  0
  1  8  1  1
  3  2  1  0
  2  9  1  6
  4  3  1  0
  3 10  1  6
  4  5  1  6
  4 11  1  0
 12  5  1  0
  6  7  1  6
  6 11  1  0
M  END
$$$$
