
     RDKit          3D

 12 12  0  0  0  0  0  0  0  0999 V2000
  -18.4846   -7.7676   -2.4911 C   0  0  2  0  0  0  0  0  0  0  0  0
  -19.4471   -7.8050   -3.6223 C   0  0  2  0  0  0  0  0  0  0  0  0
  -19.6342   -9.0985   -4.2946 C   0  0  1  0  0  0  0  0  0  0  0  0
  -18.8046  -10.2318   -3.8322 C   0  0  1  0  0  0  0  0  0  0  0  0
  -18.2352  -11.0253   -5.0176 C   0  0  0  0  0  0  0  0  0  0  0  0
  -18.1054   -9.1210   -1.9539 C   0  0  2  0  0  0  0  0  0  0  0  0
  -16.9552   -8.9426   -1.1673 O   0  0  0  0  0  0  0  0  0  0  0  0
  -18.9493   -7.0079   -1.4187 O   0  0  0  0  0  0  0  0  0  0  0  0
  -19.0614   -6.7929   -4.5334 O   0  0  0  0  0  0  0  0  0  0  0  0
  -20.9884   -9.5058   -4.2468 O   0  0  0  0  0  0  0  0  0  0  0  0
  -17.7194   -9.8884   -3.0514 O   0  0  0  0  0  0  0  0  0  0  0  0
  -16.8346  -10.9435   -4.8682 O   0  0  0  0  0  0  0  0  0  0  0  0
  2  1  1  0
  1  6  1  0
  1  8  1  1
  3  2  1  0
  2  9  1  6
  4  3  1  0
  3 10  1  1
  5  4  1  0
  4 11  1  6
  5 12  1  6
  6  7  1  1
  6 11  1  0
M  END
$$$$
