
     RDKit          3D

 12 12  0  0  0  0  0  0  0  0999 V2000
  -19.5252   -7.6526   -2.7213 C   0  0  2  0  0  0  0  0  0  0  0  0
  -18.6357   -8.1697   -3.8036 C   0  0  2  0  0  0  0  0  0  0  0  0
  -17.5028   -8.9486   -3.1219 C   0  0  1  0  0  0  0  0  0  0  0  0
  -18.2440  -10.0007   -2.3228 C   0  0  1  0  0  0  0  0  0  0  0  0
  -17.3523  -11.1568   -1.9551 C   0  0  0  0  0  0  0  0  0  0  0  0
  -19.2662   -8.1568   -1.3616 C   0  0  2  0  0  0  0  0  0  0  0  0
  -18.4404   -7.2468   -0.6613 O   0  0  0  0  0  0  0  0  0  0  0  0
  -20.8509   -7.8587   -3.1240 O   0  0  0  0  0  0  0  0  0  0  0  0
  -18.1583   -7.2111   -4.6603 O   0  0  0  0  0  0  0  0  0  0  0  0
  -16.6315   -9.4840   -4.0377 O   0  0  0  0  0  0  0  0  0  0  0  0
  -18.7464   -9.3922   -1.2140 O   0  0  0  0  0  0  0  0  0  0  0  0
  -16.3815  -10.7409   -1.0469 O   0  0  0  0  0  0  0  0  0  0  0  0
  2  1  1  0
  1  6  1  0
  1  8  1  6
  3  2  1  0
  2  9  1  1
  4  3  1  0
  3 10  1  6
  4  5  1  1
  4 11  1  0
 12  5  1  0
  6  7  1  6
  6 11  1  0
M  END
$$$$
