
     RDKit          3D

 12 12  0  0  0  0  0  0  0  0999 V2000
  -18.8634   -7.8254   -1.9883 C   0  0  2  0  0  0  0  0  0  0  0  0
  -19.5455   -7.6155   -3.3000 C   0  0  2  0  0  0  0  0  0  0  0  0
  -18.7253   -8.3642   -4.3591 C   0  0  1  0  0  0  0  0  0  0  0  0
  -18.7193   -9.7884   -3.8429 C   0  0  1  0  0  0  0  0  0  0  0  0
  -18.3897  -10.7771   -4.9295 C   0  0  0  0  0  0  0  0  0  0  0  0
  -17.7711   -8.8136   -1.9669 C   0  0  2  0  0  0  0  0  0  0  0  0
  -16.5282   -8.1590   -2.1319 O   0  0  0  0  0  0  0  0  0  0  0  0
  -19.8507   -8.0997   -1.0332 O   0  0  0  0  0  0  0  0  0  0  0  0
  -19.7460   -6.3017   -3.6382 O   0  0  0  0  0  0  0  0  0  0  0  0
  -19.2817   -8.2476   -5.6087 O   0  0  0  0  0  0  0  0  0  0  0  0
  -17.8152   -9.8506   -2.8275 O   0  0  0  0  0  0  0  0  0  0  0  0
  -17.0529  -10.6511   -5.3002 O   0  0  0  0  0  0  0  0  0  0  0  0
  2  1  1  0
  1  6  1  0
  1  8  1  1
  3  2  1  0
  2  9  1  6
  4  3  1  0
  3 10  1  6
  4  5  1  6
  4 11  1  0
 12  5  1  0
  6  7  1  6
  6 11  1  0
M  END
$$$$
