
     RDKit          3D

 12 12  0  0  0  0  0  0  0  0999 V2000
  -19.2248   -8.1182   -2.0029 C   0  0  2  0  0  0  0  0  0  0  0  0
  -20.0515   -8.2273   -3.2417 C   0  0  2  0  0  0  0  0  0  0  0  0
  -19.0968   -8.5778   -4.3908 C   0  0  1  0  0  0  0  0  0  0  0  0
  -18.4502   -9.8635   -3.9179 C   0  0  1  0  0  0  0  0  0  0  0  0
  -17.8418  -10.6371   -5.0574 C   0  0  0  0  0  0  0  0  0  0  0  0
  -17.8235   -8.5603   -2.1075 C   0  0  2  0  0  0  0  0  0  0  0  0
  -16.9874   -7.4489   -2.3647 O   0  0  0  0  0  0  0  0  0  0  0  0
  -19.9144   -8.7683   -0.9714 O   0  0  0  0  0  0  0  0  0  0  0  0
  -20.8114   -7.1209   -3.5231 O   0  0  0  0  0  0  0  0  0  0  0  0
  -19.7651   -8.7185   -5.5817 O   0  0  0  0  0  0  0  0  0  0  0  0
  -17.5119   -9.5311   -2.9899 O   0  0  0  0  0  0  0  0  0  0  0  0
  -16.9867   -9.8163   -5.7890 O   0  0  0  0  0  0  0  0  0  0  0  0
  2  1  1  0
  1  6  1  0
  1  8  1  1
  3  2  1  0
  2  9  1  6
  4  3  1  0
  3 10  1  6
  4  5  1  6
  4 11  1  0
 12  5  1  0
  6  7  1  6
  6 11  1  0
M  END
$$$$
