
     RDKit          3D

 12 12  0  0  0  0  0  0  0  0999 V2000
  -19.1856   -7.6060   -2.4918 C   0  0  2  0  0  0  0  0  0  0  0  0
  -19.9946   -6.9220   -3.5442 C   0  0  2  0  0  0  0  0  0  0  0  0
  -19.2051   -7.0236   -4.8562 C   0  0  1  0  0  0  0  0  0  0  0  0
  -19.0265   -8.5175   -5.0329 C   0  0  1  0  0  0  0  0  0  0  0  0
  -18.7045   -8.8787   -6.4586 C   0  0  0  0  0  0  0  0  0  0  0  0
  -18.0112   -8.3646   -2.9558 C   0  0  2  0  0  0  0  0  0  0  0  0
  -16.8511   -7.5616   -2.8565 O   0  0  0  0  0  0  0  0  0  0  0  0
  -20.0581   -8.3885   -1.7246 O   0  0  0  0  0  0  0  0  0  0  0  0
  -20.3408   -5.6280   -3.2507 O   0  0  0  0  0  0  0  0  0  0  0  0
  -19.8755   -6.4351   -5.8996 O   0  0  0  0  0  0  0  0  0  0  0  0
  -18.0361   -8.9129   -4.1874 O   0  0  0  0  0  0  0  0  0  0  0  0
  -17.5699   -8.1899   -6.8811 O   0  0  0  0  0  0  0  0  0  0  0  0
  2  1  1  0
  1  6  1  0
  1  8  1  6
  3  2  1  0
  2  9  1  1
  4  3  1  0
  3 10  1  6
  4  5  1  6
  4 11  1  0
 12  5  1  0
  6  7  1  6
  6 11  1  0
M  END
$$$$
