
     RDKit          3D

 12 12  0  0  0  0  0  0  0  0999 V2000
  -18.2962   -7.8273   -4.1057 C   0  0  2  0  0  0  0  0  0  0  0  0
  -19.0041   -6.8075   -4.9220 C   0  0  2  0  0  0  0  0  0  0  0  0
  -19.9832   -5.9605   -4.2264 C   0  0  1  0  0  0  0  0  0  0  0  0
  -20.2263   -6.2373   -2.7943 C   0  0  1  0  0  0  0  0  0  0  0  0
  -21.7272   -6.2124   -2.4692 C   0  0  0  0  0  0  0  0  0  0  0  0
  -18.4059   -7.6181   -2.6197 C   0  0  2  0  0  0  0  0  0  0  0  0
  -18.0138   -8.8196   -2.0063 O   0  0  0  0  0  0  0  0  0  0  0  0
  -16.9399   -7.9132   -4.4163 O   0  0  0  0  0  0  0  0  0  0  0  0
  -19.5845   -7.4820   -6.0227 O   0  0  0  0  0  0  0  0  0  0  0  0
  -19.6515   -4.5907   -4.3520 O   0  0  0  0  0  0  0  0  0  0  0  0
  -19.7621   -7.4560   -2.3420 O   0  0  0  0  0  0  0  0  0  0  0  0
  -21.9122   -7.2531   -1.5348 O   0  0  0  0  0  0  0  0  0  0  0  0
  2  1  1  0
  1  6  1  0
  1  8  1  6
  3  2  1  0
  2  9  1  6
  4  3  1  0
  3 10  1  1
  5  4  1  0
  4 11  1  6
  5 12  1  6
  6  7  1  1
  6 11  1  0
M  END
$$$$
