
     RDKit          3D

 12 12  0  0  0  0  0  0  0  0999 V2000
  -18.9012   -7.9433   -2.1979 C   0  0  2  0  0  0  0  0  0  0  0  0
  -19.5187   -7.6016   -3.5140 C   0  0  2  0  0  0  0  0  0  0  0  0
  -18.7073   -8.3288   -4.5946 C   0  0  1  0  0  0  0  0  0  0  0  0
  -18.8098   -9.7820   -4.1790 C   0  0  1  0  0  0  0  0  0  0  0  0
  -18.5016  -10.7145   -5.3202 C   0  0  0  0  0  0  0  0  0  0  0  0
  -17.8744   -8.9995   -2.2089 C   0  0  2  0  0  0  0  0  0  0  0  0
  -16.5876   -8.4173   -2.2862 O   0  0  0  0  0  0  0  0  0  0  0  0
  -19.9392   -8.2167   -1.2980 O   0  0  0  0  0  0  0  0  0  0  0  0
  -19.6238   -6.2578   -3.7663 O   0  0  0  0  0  0  0  0  0  0  0  0
  -19.2075   -8.0925   -5.8509 O   0  0  0  0  0  0  0  0  0  0  0  0
  -17.9505   -9.9711   -3.1407 O   0  0  0  0  0  0  0  0  0  0  0  0
  -17.2513  -10.4158   -5.8565 O   0  0  0  0  0  0  0  0  0  0  0  0
  2  1  1  0
  1  6  1  0
  1  8  1  1
  3  2  1  0
  2  9  1  6
  4  3  1  0
  3 10  1  6
  4  5  1  6
  4 11  1  0
 12  5  1  0
  6  7  1  6
  6 11  1  0
M  END
$$$$
