
     RDKit          3D

 12 12  0  0  0  0  0  0  0  0999 V2000
  -18.8226   -7.6910   -2.6550 C   0  0  2  0  0  0  0  0  0  0  0  0
  -20.0290   -7.7822   -3.5173 C   0  0  2  0  0  0  0  0  0  0  0  0
  -19.9200   -8.6058   -4.7297 C   0  0  1  0  0  0  0  0  0  0  0  0
  -18.6056   -9.2177   -5.0204 C   0  0  1  0  0  0  0  0  0  0  0  0
  -18.2380   -9.0691   -6.5043 C   0  0  0  0  0  0  0  0  0  0  0  0
  -17.7757   -8.7334   -2.9401 C   0  0  2  0  0  0  0  0  0  0  0  0
  -16.5900   -8.3041   -2.3211 O   0  0  0  0  0  0  0  0  0  0  0  0
  -19.1290   -7.7673   -1.2972 O   0  0  0  0  0  0  0  0  0  0  0  0
  -20.4291   -6.4584   -3.8185 O   0  0  0  0  0  0  0  0  0  0  0  0
  -20.8879   -9.6378   -4.7328 O   0  0  0  0  0  0  0  0  0  0  0  0
  -17.5419   -8.6942   -4.3136 O   0  0  0  0  0  0  0  0  0  0  0  0
  -17.2035  -10.0047   -6.7161 O   0  0  0  0  0  0  0  0  0  0  0  0
  2  1  1  0
  1  6  1  0
  1  8  1  1
  3  2  1  0
  2  9  1  6
  4  3  1  0
  3 10  1  1
  5  4  1  0
  4 11  1  1
  5 12  1  6
  6  7  1  1
  6 11  1  0
M  END
$$$$
