
     RDKit          3D

 12 12  0  0  0  0  0  0  0  0999 V2000
  -18.0301   -7.8578   -2.8059 C   0  0  2  0  0  0  0  0  0  0  0  0
  -19.4291   -7.5144   -3.1693 C   0  0  2  0  0  0  0  0  0  0  0  0
  -20.0584   -8.3175   -4.2271 C   0  0  1  0  0  0  0  0  0  0  0  0
  -19.2278   -9.3512   -4.8815 C   0  0  1  0  0  0  0  0  0  0  0  0
  -19.4156   -9.3338   -6.4058 C   0  0  0  0  0  0  0  0  0  0  0  0
  -17.5706   -9.2004   -3.3062 C   0  0  2  0  0  0  0  0  0  0  0  0
  -16.1696   -9.2188   -3.2042 O   0  0  0  0  0  0  0  0  0  0  0  0
  -17.8126   -7.8284   -1.4293 O   0  0  0  0  0  0  0  0  0  0  0  0
  -19.4546   -6.1329   -3.4762 O   0  0  0  0  0  0  0  0  0  0  0  0
  -21.2376   -8.9431   -3.7579 O   0  0  0  0  0  0  0  0  0  0  0  0
  -17.8690   -9.2389   -4.6671 O   0  0  0  0  0  0  0  0  0  0  0  0
  -18.1546   -8.9673   -6.9214 O   0  0  0  0  0  0  0  0  0  0  0  0
  2  1  1  0
  1  6  1  0
  1  8  1  1
  3  2  1  0
  2  9  1  6
  4  3  1  0
  3 10  1  1
  5  4  1  0
  4 11  1  6
  5 12  1  6
  6  7  1  6
  6 11  1  0
M  END
$$$$
