
     RDKit          3D

 12 12  0  0  0  0  0  0  0  0999 V2000
  -22.6456   -0.3883  -18.8615 C   0  0  2  0  0  0  0  0  0  0  0  0
  -23.1920   -1.7004  -18.4286 C   0  0  2  0  0  0  0  0  0  0  0  0
  -22.2379   -2.6650  -17.8636 C   0  0  1  0  0  0  0  0  0  0  0  0
  -20.8121   -2.2741  -17.8343 C   0  0  1  0  0  0  0  0  0  0  0  0
  -19.9086   -3.4285  -18.2926 C   0  0  0  0  0  0  0  0  0  0  0  0
  -21.2689   -0.0853  -18.3354 C   0  0  2  0  0  0  0  0  0  0  0  0
  -20.7621    0.9781  -19.1008 O   0  0  0  0  0  0  0  0  0  0  0  0
  -23.4716    0.6776  -18.5082 O   0  0  0  0  0  0  0  0  0  0  0  0
  -23.8958   -2.2443  -19.5295 O   0  0  0  0  0  0  0  0  0  0  0  0
  -22.6107   -3.0406  -16.5514 O   0  0  0  0  0  0  0  0  0  0  0  0
  -20.4797   -1.1959  -18.6292 O   0  0  0  0  0  0  0  0  0  0  0  0
  -19.2505   -2.9389  -19.4405 O   0  0  0  0  0  0  0  0  0  0  0  0
  2  1  1  0
  1  6  1  0
  1  8  1  1
  3  2  1  0
  2  9  1  6
  4  3  1  0
  3 10  1  1
  5  4  1  0
  4 11  1  6
  5 12  1  6
  6  7  1  6
  6 11  1  0
M  END
$$$$
