
     RDKit          3D

 12 12  0  0  0  0  0  0  0  0999 V2000
  -18.8712   -7.7195   -3.3232 C   0  0  2  0  0  0  0  0  0  0  0  0
  -17.8540   -7.9898   -2.2638 C   0  0  2  0  0  0  0  0  0  0  0  0
  -18.3030   -7.2353   -1.0053 C   0  0  1  0  0  0  0  0  0  0  0  0
  -19.6861   -7.7964   -0.7456 C   0  0  1  0  0  0  0  0  0  0  0  0
  -20.1276   -7.5641    0.6749 C   0  0  0  0  0  0  0  0  0  0  0  0
  -20.1002   -7.0308   -2.8930 C   0  0  2  0  0  0  0  0  0  0  0  0
  -19.9771   -5.6406   -3.1229 O   0  0  0  0  0  0  0  0  0  0  0  0
  -19.1377   -8.9294   -3.9770 O   0  0  0  0  0  0  0  0  0  0  0  0
  -16.5645   -7.6826   -2.6154 O   0  0  0  0  0  0  0  0  0  0  0  0
  -17.4375   -7.4330    0.0417 O   0  0  0  0  0  0  0  0  0  0  0  0
  -20.5374   -7.2087   -1.6299 O   0  0  0  0  0  0  0  0  0  0  0  0
  -20.3555   -6.2066    0.8882 O   0  0  0  0  0  0  0  0  0  0  0  0
  2  1  1  0
  1  6  1  0
  1  8  1  1
  3  2  1  0
  2  9  1  6
  4  3  1  0
  3 10  1  1
  4  5  1  1
  4 11  1  0
 12  5  1  0
  6  7  1  1
  6 11  1  0
M  END
$$$$
