
     RDKit          3D

 12 12  0  0  0  0  0  0  0  0999 V2000
  -17.4687   -8.4485   -2.4109 C   0  0  2  0  0  0  0  0  0  0  0  0
  -18.2540   -7.6282   -3.3689 C   0  0  2  0  0  0  0  0  0  0  0  0
  -19.3110   -8.3160   -4.1238 C   0  0  1  0  0  0  0  0  0  0  0  0
  -19.4589   -9.7724   -3.9141 C   0  0  1  0  0  0  0  0  0  0  0  0
  -19.6506  -10.5103   -5.2474 C   0  0  0  0  0  0  0  0  0  0  0  0
  -18.0907   -9.7769   -2.0760 C   0  0  2  0  0  0  0  0  0  0  0  0
  -17.0905  -10.5580   -1.4733 O   0  0  0  0  0  0  0  0  0  0  0  0
  -17.2298   -7.7842   -1.2089 O   0  0  0  0  0  0  0  0  0  0  0  0
  -17.3291   -6.9886   -4.2284 O   0  0  0  0  0  0  0  0  0  0  0  0
  -20.5719   -7.7159   -3.8961 O   0  0  0  0  0  0  0  0  0  0  0  0
  -18.3934  -10.3897   -3.2906 O   0  0  0  0  0  0  0  0  0  0  0  0
  -18.5554  -11.3956   -5.3316 O   0  0  0  0  0  0  0  0  0  0  0  0
  2  1  1  0
  1  6  1  0
  1  8  1  1
  3  2  1  0
  2  9  1  6
  4  3  1  0
  3 10  1  1
  5  4  1  0
  4 11  1  6
  5 12  1  6
  6  7  1  6
  6 11  1  0
M  END
$$$$
