
     RDKit          3D

 12 12  0  0  0  0  0  0  0  0999 V2000
  -18.0838   -8.1569   -5.4306 C   0  0  2  0  0  0  0  0  0  0  0  0
  -17.8875   -6.7495   -4.9715 C   0  0  2  0  0  0  0  0  0  0  0  0
  -19.1181   -6.3725   -4.1358 C   0  0  1  0  0  0  0  0  0  0  0  0
  -19.1256   -7.4237   -3.0450 C   0  0  1  0  0  0  0  0  0  0  0  0
  -19.9423   -6.9921   -1.8562 C   0  0  0  0  0  0  0  0  0  0  0  0
  -19.2162   -8.8891   -4.8376 C   0  0  2  0  0  0  0  0  0  0  0  0
  -20.3416   -8.8049   -5.6902 O   0  0  0  0  0  0  0  0  0  0  0  0
  -16.8672   -8.8320   -5.2682 O   0  0  0  0  0  0  0  0  0  0  0  0
  -17.6512   -5.8464   -5.9761 O   0  0  0  0  0  0  0  0  0  0  0  0
  -19.0285   -5.0924   -3.6481 O   0  0  0  0  0  0  0  0  0  0  0  0
  -19.6131   -8.5723   -3.5885 O   0  0  0  0  0  0  0  0  0  0  0  0
  -21.2649   -6.7787   -2.2376 O   0  0  0  0  0  0  0  0  0  0  0  0
  2  1  1  0
  1  6  1  0
  1  8  1  1
  3  2  1  0
  2  9  1  6
  4  3  1  0
  3 10  1  1
  4  5  1  1
  4 11  1  0
 12  5  1  0
  6  7  1  6
  6 11  1  0
M  END
$$$$
