
     RDKit          3D

 12 12  0  0  0  0  0  0  0  0999 V2000
  -18.7274   -7.7698   -2.4093 C   0  0  2  0  0  0  0  0  0  0  0  0
  -18.6320   -8.9842   -3.2732 C   0  0  2  0  0  0  0  0  0  0  0  0
  -19.1319   -8.5851   -4.6680 C   0  0  1  0  0  0  0  0  0  0  0  0
  -18.2162   -7.4384   -5.0442 C   0  0  1  0  0  0  0  0  0  0  0  0
  -18.2009   -7.1977   -6.5304 C   0  0  0  0  0  0  0  0  0  0  0  0
  -19.0391   -6.5018   -3.0912 C   0  0  2  0  0  0  0  0  0  0  0  0
  -20.4296   -6.2508   -3.0258 O   0  0  0  0  0  0  0  0  0  0  0  0
  -17.5527   -7.6933   -1.6500 O   0  0  0  0  0  0  0  0  0  0  0  0
  -19.2875  -10.0864   -2.7873 O   0  0  0  0  0  0  0  0  0  0  0  0
  -19.0688   -9.6351   -5.5502 O   0  0  0  0  0  0  0  0  0  0  0  0
  -18.6440   -6.3365   -4.3697 O   0  0  0  0  0  0  0  0  0  0  0  0
  -19.4242   -6.6740   -6.9419 O   0  0  0  0  0  0  0  0  0  0  0  0
  2  1  1  0
  1  6  1  0
  1  8  1  6
  3  2  1  0
  2  9  1  1
  4  3  1  0
  3 10  1  6
  4  5  1  6
  4 11  1  0
 12  5  1  0
  6  7  1  6
  6 11  1  0
M  END
$$$$
