
     RDKit          3D

 12 12  0  0  0  0  0  0  0  0999 V2000
  -18.1749   -7.7531   -2.6533 C   0  0  2  0  0  0  0  0  0  0  0  0
  -19.2858   -7.5881   -3.6260 C   0  0  2  0  0  0  0  0  0  0  0  0
  -19.6088   -8.7468   -4.4705 C   0  0  1  0  0  0  0  0  0  0  0  0
  -18.7624   -9.9507   -4.3262 C   0  0  1  0  0  0  0  0  0  0  0  0
  -18.3907  -10.5376   -5.6959 C   0  0  0  0  0  0  0  0  0  0  0  0
  -17.7716   -9.1818   -2.4084 C   0  0  2  0  0  0  0  0  0  0  0  0
  -16.5179   -9.1514   -1.7753 O   0  0  0  0  0  0  0  0  0  0  0  0
  -18.4599   -7.1814   -1.4143 O   0  0  0  0  0  0  0  0  0  0  0  0
  -18.9957   -6.4402   -4.4016 O   0  0  0  0  0  0  0  0  0  0  0  0
  -20.9564   -9.1421   -4.2985 O   0  0  0  0  0  0  0  0  0  0  0  0
  -17.5683   -9.7561   -3.6620 O   0  0  0  0  0  0  0  0  0  0  0  0
  -17.2446   -9.8197   -6.0980 O   0  0  0  0  0  0  0  0  0  0  0  0
  2  1  1  0
  1  6  1  0
  1  8  1  1
  3  2  1  0
  2  9  1  6
  4  3  1  0
  3 10  1  1
  5  4  1  0
  4 11  1  6
  5 12  1  6
  6  7  1  1
  6 11  1  0
M  END
$$$$
