
     RDKit          3D

 12 12  0  0  0  0  0  0  0  0999 V2000
  -17.8145   -8.4010   -2.1127 C   0  0  2  0  0  0  0  0  0  0  0  0
  -18.4701   -7.6395   -3.2070 C   0  0  2  0  0  0  0  0  0  0  0  0
  -18.9490   -8.4124   -4.3617 C   0  0  1  0  0  0  0  0  0  0  0  0
  -18.6807   -9.8666   -4.3654 C   0  0  1  0  0  0  0  0  0  0  0  0
  -18.1870  -10.3383   -5.7411 C   0  0  0  0  0  0  0  0  0  0  0  0
  -18.0500   -9.8863   -2.1625 C   0  0  2  0  0  0  0  0  0  0  0  0
  -17.1014  -10.4808   -1.3137 O   0  0  0  0  0  0  0  0  0  0  0  0
  -18.2005   -7.9592   -0.8481 O   0  0  0  0  0  0  0  0  0  0  0  0
  -17.5754   -6.6150   -3.5981 O   0  0  0  0  0  0  0  0  0  0  0  0
  -20.3383   -8.2283   -4.5566 O   0  0  0  0  0  0  0  0  0  0  0  0
  -17.7333  -10.2939   -3.4572 O   0  0  0  0  0  0  0  0  0  0  0  0
  -18.6002  -11.6843   -5.8317 O   0  0  0  0  0  0  0  0  0  0  0  0
  2  1  1  0
  1  6  1  0
  1  8  1  1
  3  2  1  0
  2  9  1  6
  4  3  1  0
  3 10  1  1
  5  4  1  0
  4 11  1  1
  5 12  1  6
  6  7  1  1
  6 11  1  0
M  END
$$$$
