
     RDKit          3D

 12 12  0  0  0  0  0  0  0  0999 V2000
  -18.1328   -7.7674   -1.6760 C   0  0  2  0  0  0  0  0  0  0  0  0
  -18.9214   -7.4584   -2.8967 C   0  0  2  0  0  0  0  0  0  0  0  0
  -19.4987   -8.5986   -3.6226 C   0  0  1  0  0  0  0  0  0  0  0  0
  -19.1926   -9.9534   -3.1152 C   0  0  1  0  0  0  0  0  0  0  0  0
  -18.8348  -10.9100   -4.2623 C   0  0  0  0  0  0  0  0  0  0  0  0
  -18.3316   -9.1611   -1.1450 C   0  0  2  0  0  0  0  0  0  0  0  0
  -17.2826   -9.4106   -0.2445 O   0  0  0  0  0  0  0  0  0  0  0  0
  -18.3946   -6.8815   -0.6320 O   0  0  0  0  0  0  0  0  0  0  0  0
  -18.1015   -6.6657   -3.7349 O   0  0  0  0  0  0  0  0  0  0  0  0
  -20.9053   -8.4805   -3.7199 O   0  0  0  0  0  0  0  0  0  0  0  0
  -18.1429  -10.0256   -2.2219 O   0  0  0  0  0  0  0  0  0  0  0  0
  -17.4309  -11.0367   -4.2030 O   0  0  0  0  0  0  0  0  0  0  0  0
  2  1  1  0
  1  6  1  0
  1  8  1  1
  3  2  1  0
  2  9  1  6
  4  3  1  0
  3 10  1  1
  5  4  1  0
  4 11  1  1
  5 12  1  6
  6  7  1  1
  6 11  1  0
M  END
$$$$
