
     RDKit          3D

 12 12  0  0  0  0  0  0  0  0999 V2000
  -19.0286   -7.7384   -2.5524 C   0  0  2  0  0  0  0  0  0  0  0  0
  -19.2615   -7.5319   -4.0129 C   0  0  2  0  0  0  0  0  0  0  0  0
  -18.3927   -8.5552   -4.7566 C   0  0  1  0  0  0  0  0  0  0  0  0
  -18.8696   -9.8796   -4.1966 C   0  0  1  0  0  0  0  0  0  0  0  0
  -18.5088  -11.0313   -5.0968 C   0  0  0  0  0  0  0  0  0  0  0  0
  -18.2544   -8.9330   -2.1733 C   0  0  2  0  0  0  0  0  0  0  0  0
  -16.8931   -8.5887   -2.0035 O   0  0  0  0  0  0  0  0  0  0  0  0
  -20.2722   -7.6818   -1.9101 O   0  0  0  0  0  0  0  0  0  0  0  0
  -19.0404   -6.2522   -4.4534 O   0  0  0  0  0  0  0  0  0  0  0  0
  -18.5475   -8.4599   -6.1173 O   0  0  0  0  0  0  0  0  0  0  0  0
  -18.3145  -10.0245   -2.9625 O   0  0  0  0  0  0  0  0  0  0  0  0
  -17.1311  -11.2357   -5.0817 O   0  0  0  0  0  0  0  0  0  0  0  0
  2  1  1  0
  1  6  1  0
  1  8  1  1
  3  2  1  0
  2  9  1  6
  4  3  1  0
  3 10  1  6
  4  5  1  6
  4 11  1  0
 12  5  1  0
  6  7  1  6
  6 11  1  0
M  END
$$$$
