
     RDKit          3D

 12 12  0  0  0  0  0  0  0  0999 V2000
  -18.3826   -8.3233   -2.0952 C   0  0  2  0  0  0  0  0  0  0  0  0
  -19.2769   -7.9232   -3.2121 C   0  0  2  0  0  0  0  0  0  0  0  0
  -19.5354   -8.9299   -4.2512 C   0  0  1  0  0  0  0  0  0  0  0  0
  -18.8350  -10.2267   -4.1312 C   0  0  1  0  0  0  0  0  0  0  0  0
  -18.2680  -10.6807   -5.4844 C   0  0  0  0  0  0  0  0  0  0  0  0
  -18.1536   -9.8063   -1.9842 C   0  0  2  0  0  0  0  0  0  0  0  0
  -17.0401   -9.9879   -1.1471 O   0  0  0  0  0  0  0  0  0  0  0  0
  -18.8418   -7.8779   -0.8567 O   0  0  0  0  0  0  0  0  0  0  0  0
  -18.7528   -6.7282   -3.7603 O   0  0  0  0  0  0  0  0  0  0  0  0
  -20.9201   -9.1953   -4.3696 O   0  0  0  0  0  0  0  0  0  0  0  0
  -17.7718  -10.2437   -3.2513 O   0  0  0  0  0  0  0  0  0  0  0  0
  -17.9495  -12.0433   -5.3043 O   0  0  0  0  0  0  0  0  0  0  0  0
  2  1  1  0
  1  6  1  0
  1  8  1  1
  3  2  1  0
  2  9  1  6
  4  3  1  0
  3 10  1  1
  5  4  1  0
  4 11  1  1
  5 12  1  6
  6  7  1  1
  6 11  1  0
M  END
$$$$
