
     RDKit          3D

 12 12  0  0  0  0  0  0  0  0999 V2000
  -18.9935   -6.6828   -3.5048 C   0  0  2  0  0  0  0  0  0  0  0  0
  -17.7648   -7.5150   -3.6709 C   0  0  2  0  0  0  0  0  0  0  0  0
  -18.2054   -8.8518   -4.2821 C   0  0  1  0  0  0  0  0  0  0  0  0
  -18.8918   -8.4312   -5.5655 C   0  0  1  0  0  0  0  0  0  0  0  0
  -18.9860   -9.5672   -6.5491 C   0  0  0  0  0  0  0  0  0  0  0  0
  -20.2254   -7.1994   -4.1258 C   0  0  2  0  0  0  0  0  0  0  0  0
  -20.9822   -7.9144   -3.1683 O   0  0  0  0  0  0  0  0  0  0  0  0
  -18.6879   -5.3822   -3.9260 O   0  0  0  0  0  0  0  0  0  0  0  0
  -17.0314   -7.6896   -2.5254 O   0  0  0  0  0  0  0  0  0  0  0  0
  -17.1391   -9.6904   -4.4927 O   0  0  0  0  0  0  0  0  0  0  0  0
  -20.1252   -7.9616   -5.2335 O   0  0  0  0  0  0  0  0  0  0  0  0
  -18.1259  -10.5965   -6.1735 O   0  0  0  0  0  0  0  0  0  0  0  0
  2  1  1  0
  1  6  1  0
  1  8  1  6
  3  2  1  0
  2  9  1  1
  4  3  1  0
  3 10  1  6
  4  5  1  6
  4 11  1  0
 12  5  1  0
  6  7  1  1
  6 11  1  0
M  END
$$$$
