
     RDKit          3D

 12 12  0  0  0  0  0  0  0  0999 V2000
  -19.4735   -7.5297   -2.6707 C   0  0  2  0  0  0  0  0  0  0  0  0
  -19.7459   -7.0703   -4.0652 C   0  0  2  0  0  0  0  0  0  0  0  0
  -18.8323   -7.8819   -4.9933 C   0  0  1  0  0  0  0  0  0  0  0  0
  -19.2190   -9.3142   -4.6867 C   0  0  1  0  0  0  0  0  0  0  0  0
  -18.8077  -10.2540   -5.7887 C   0  0  0  0  0  0  0  0  0  0  0  0
  -18.6227   -8.7237   -2.5270 C   0  0  2  0  0  0  0  0  0  0  0  0
  -17.2812   -8.3335   -2.3064 O   0  0  0  0  0  0  0  0  0  0  0  0
  -20.7058   -7.6704   -2.0197 O   0  0  0  0  0  0  0  0  0  0  0  0
  -19.6096   -5.7199   -4.2609 O   0  0  0  0  0  0  0  0  0  0  0  0
  -19.0183   -7.5452   -6.3111 O   0  0  0  0  0  0  0  0  0  0  0  0
  -18.6329   -9.6512   -3.5056 O   0  0  0  0  0  0  0  0  0  0  0  0
  -17.4516  -10.0997   -6.0665 O   0  0  0  0  0  0  0  0  0  0  0  0
  2  1  1  0
  1  6  1  0
  1  8  1  6
  3  2  1  0
  2  9  1  1
  4  3  1  0
  3 10  1  6
  4  5  1  6
  4 11  1  0
 12  5  1  0
  6  7  1  6
  6 11  1  0
M  END
$$$$
