
     RDKit          3D

 12 12  0  0  0  0  0  0  0  0999 V2000
  -19.2645   -7.7153   -2.2191 C   0  0  2  0  0  0  0  0  0  0  0  0
  -20.0955   -6.7801   -3.0345 C   0  0  2  0  0  0  0  0  0  0  0  0
  -19.4690   -6.7247   -4.4343 C   0  0  1  0  0  0  0  0  0  0  0  0
  -19.4881   -8.1740   -4.8749 C   0  0  1  0  0  0  0  0  0  0  0  0
  -19.3660   -8.3071   -6.3697 C   0  0  0  0  0  0  0  0  0  0  0  0
  -18.2445   -8.4911   -2.9457 C   0  0  2  0  0  0  0  0  0  0  0  0
  -16.9938   -7.8357   -2.8631 O   0  0  0  0  0  0  0  0  0  0  0  0
  -20.1357   -8.5321   -1.4870 O   0  0  0  0  0  0  0  0  0  0  0  0
  -20.2530   -5.5309   -2.4913 O   0  0  0  0  0  0  0  0  0  0  0  0
  -20.1736   -5.8983   -5.2740 O   0  0  0  0  0  0  0  0  0  0  0  0
  -18.4662   -8.8077   -4.2375 O   0  0  0  0  0  0  0  0  0  0  0  0
  -18.1223   -7.8420   -6.7904 O   0  0  0  0  0  0  0  0  0  0  0  0
  2  1  1  0
  1  6  1  0
  1  8  1  6
  3  2  1  0
  2  9  1  1
  4  3  1  0
  3 10  1  6
  4  5  1  6
  4 11  1  0
 12  5  1  0
  6  7  1  6
  6 11  1  0
M  END
$$$$
