
     RDKit          3D

 12 12  0  0  0  0  0  0  0  0999 V2000
   -8.0590  -35.0701  -15.6757 C   0  0  1  0  0  0  0  0  0  0  0  0
   -8.4128  -33.9631  -14.7523 C   0  0  1  0  0  0  0  0  0  0  0  0
   -7.3032  -33.0685  -14.3558 C   0  0  2  0  0  0  0  0  0  0  0  0
   -5.9325  -33.6551  -14.4895 C   0  0  1  0  0  0  0  0  0  0  0  0
   -5.8991  -34.5344  -15.6959 C   0  0  1  0  0  0  0  0  0  0  0  0
   -4.5524  -35.1261  -15.9833 C   0  0  0  0  0  0  0  0  0  0  0  0
   -8.0466  -34.6784  -17.0304 O   0  0  0  0  0  0  0  0  0  0  0  0
   -9.4040  -33.1823  -15.3899 O   0  0  0  0  0  0  0  0  0  0  0  0
   -7.4940  -32.6791  -13.0228 O   0  0  0  0  0  0  0  0  0  0  0  0
   -5.0166  -32.6179  -14.6594 O   0  0  0  0  0  0  0  0  0  0  0  0
   -6.7819  -35.6071  -15.4269 O   0  0  0  0  0  0  0  0  0  0  0  0
   -4.6000  -36.0180  -17.0437 O   0  0  0  0  0  0  0  0  0  0  0  0
  1  2  1  0
  1  7  1  6
 11  1  1  0
  3  2  1  0
  2  8  1  6
  4  3  1  0
  3  9  1  1
  5  4  1  0
  4 10  1  6
  5  6  1  1
  5 11  1  0
 12  6  1  0
M  END
$$$$
