
     RDKit          3D

 12 12  0  0  0  0  0  0  0  0999 V2000
   -6.9770  -33.9896  -14.6749 C   0  0  1  0  0  0  0  0  0  0  0  0
   -7.7049  -33.2300  -13.6278 C   0  0  1  0  0  0  0  0  0  0  0  0
   -7.7575  -31.7625  -13.8084 C   0  0  2  0  0  0  0  0  0  0  0  0
   -6.6840  -31.1887  -14.6798 C   0  0  1  0  0  0  0  0  0  0  0  0
   -6.3923  -32.1508  -15.7838 C   0  0  1  0  0  0  0  0  0  0  0  0
   -5.3812  -31.6565  -16.7736 C   0  0  0  0  0  0  0  0  0  0  0  0
   -7.7712  -34.2749  -15.8049 O   0  0  0  0  0  0  0  0  0  0  0  0
   -9.0309  -33.7193  -13.5965 O   0  0  0  0  0  0  0  0  0  0  0  0
   -7.6841  -31.1516  -12.5489 O   0  0  0  0  0  0  0  0  0  0  0  0
   -7.1458  -29.9939  -15.2303 O   0  0  0  0  0  0  0  0  0  0  0  0
   -5.8509  -33.3046  -15.1690 O   0  0  0  0  0  0  0  0  0  0  0  0
   -5.8376  -30.5412  -17.4591 O   0  0  0  0  0  0  0  0  0  0  0  0
  1  2  1  0
  1  7  1  6
 11  1  1  0
  3  2  1  0
  2  8  1  6
  4  3  1  0
  3  9  1  1
  5  4  1  0
  4 10  1  6
  5  6  1  6
  5 11  1  0
 12  6  1  0
M  END
$$$$
