
     RDKit          3D

 12 12  0  0  0  0  0  0  0  0999 V2000
   -8.3640  -33.7414  -16.1652 C   0  0  1  0  0  0  0  0  0  0  0  0
   -8.4661  -32.9006  -14.9461 C   0  0  1  0  0  0  0  0  0  0  0  0
   -7.2295  -32.7651  -14.1454 C   0  0  2  0  0  0  0  0  0  0  0  0
   -6.2199  -33.8525  -14.3427 C   0  0  1  0  0  0  0  0  0  0  0  0
   -6.2392  -34.2756  -15.7745 C   0  0  1  0  0  0  0  0  0  0  0  0
   -5.2144  -35.3137  -16.1186 C   0  0  0  0  0  0  0  0  0  0  0  0
   -7.8587  -33.0411  -17.2801 O   0  0  0  0  0  0  0  0  0  0  0  0
   -8.8708  -31.6098  -15.3566 O   0  0  0  0  0  0  0  0  0  0  0  0
   -7.5758  -32.7183  -12.7879 O   0  0  0  0  0  0  0  0  0  0  0  0
   -4.9560  -33.3506  -14.0356 O   0  0  0  0  0  0  0  0  0  0  0  0
   -7.5128  -34.8501  -15.9991 O   0  0  0  0  0  0  0  0  0  0  0  0
   -5.4320  -36.4971  -15.4298 O   0  0  0  0  0  0  0  0  0  0  0  0
  1  2  1  0
  1  7  1  6
 11  1  1  0
  3  2  1  0
  2  8  1  6
  4  3  1  0
  3  9  1  1
  5  4  1  0
  4 10  1  6
  5  6  1  1
  5 11  1  0
 12  6  1  0
M  END
$$$$
