
     RDKit          3D

 12 12  0  0  0  0  0  0  0  0999 V2000
   -6.7589  -33.7050  -16.6945 C   0  0  1  0  0  0  0  0  0  0  0  0
   -7.0861  -34.5150  -15.4704 C   0  0  1  0  0  0  0  0  0  0  0  0
   -8.0306  -33.8332  -14.5313 C   0  0  2  0  0  0  0  0  0  0  0  0
   -7.6543  -32.3654  -14.3359 C   0  0  1  0  0  0  0  0  0  0  0  0
   -7.5015  -31.7676  -15.6999 C   0  0  1  0  0  0  0  0  0  0  0  0
   -7.1692  -30.2960  -15.6621 C   0  0  0  0  0  0  0  0  0  0  0  0
   -7.7759  -33.7301  -17.6435 O   0  0  0  0  0  0  0  0  0  0  0  0
   -7.7223  -35.6867  -15.9193 O   0  0  0  0  0  0  0  0  0  0  0  0
   -8.0207  -34.5219  -13.3226 O   0  0  0  0  0  0  0  0  0  0  0  0
   -8.6736  -31.7769  -13.5978 O   0  0  0  0  0  0  0  0  0  0  0  0
   -6.4216  -32.4128  -16.3192 O   0  0  0  0  0  0  0  0  0  0  0  0
   -6.8959  -29.7718  -16.9010 O   0  0  0  0  0  0  0  0  0  0  0  0
  1  2  1  0
  1  7  1  6
 11  1  1  0
  3  2  1  0
  2  8  1  6
  4  3  1  0
  3  9  1  1
  5  4  1  0
  4 10  1  1
  6  5  1  0
  5 11  1  1
  6 12  1  6
M  END
$$$$
