
     RDKit          3D

 12 12  0  0  0  0  0  0  0  0999 V2000
   -7.5565  -34.6713  -14.9722 C   0  0  1  0  0  0  0  0  0  0  0  0
   -7.8713  -33.3967  -14.2796 C   0  0  1  0  0  0  0  0  0  0  0  0
   -7.5783  -32.1583  -15.0340 C   0  0  2  0  0  0  0  0  0  0  0  0
   -6.5638  -32.3016  -16.1254 C   0  0  1  0  0  0  0  0  0  0  0  0
   -6.7254  -33.6425  -16.7620 C   0  0  1  0  0  0  0  0  0  0  0  0
   -5.8112  -33.8804  -17.9256 C   0  0  0  0  0  0  0  0  0  0  0  0
   -8.5824  -35.0974  -15.8410 O   0  0  0  0  0  0  0  0  0  0  0  0
   -9.2515  -33.4122  -13.9742 O   0  0  0  0  0  0  0  0  0  0  0  0
   -7.1319  -31.1794  -14.1354 O   0  0  0  0  0  0  0  0  0  0  0  0
   -6.7943  -31.3147  -17.0829 O   0  0  0  0  0  0  0  0  0  0  0  0
   -6.3974  -34.5938  -15.7671 O   0  0  0  0  0  0  0  0  0  0  0  0
   -4.4856  -33.9620  -17.5279 O   0  0  0  0  0  0  0  0  0  0  0  0
  1  2  1  0
  1  7  1  6
 11  1  1  0
  3  2  1  0
  2  8  1  6
  4  3  1  0
  3  9  1  1
  5  4  1  0
  4 10  1  6
  5  6  1  6
  5 11  1  0
 12  6  1  0
M  END
$$$$
