
     RDKit          3D

 12 12  0  0  0  0  0  0  0  0999 V2000
   -7.6429  -32.8882  -16.8312 C   0  0  1  0  0  0  0  0  0  0  0  0
   -8.0883  -32.1512  -15.6221 C   0  0  1  0  0  0  0  0  0  0  0  0
   -7.5831  -32.6608  -14.3284 C   0  0  2  0  0  0  0  0  0  0  0  0
   -7.1434  -34.0916  -14.3346 C   0  0  1  0  0  0  0  0  0  0  0  0
   -6.5086  -34.3961  -15.6513 C   0  0  1  0  0  0  0  0  0  0  0  0
   -5.9560  -35.7853  -15.7564 C   0  0  0  0  0  0  0  0  0  0  0  0
   -6.3773  -32.4752  -17.2964 O   0  0  0  0  0  0  0  0  0  0  0  0
   -7.6642  -30.8103  -15.7652 O   0  0  0  0  0  0  0  0  0  0  0  0
   -8.5864  -32.5063  -13.3616 O   0  0  0  0  0  0  0  0  0  0  0  0
   -6.2005  -34.2743  -13.3240 O   0  0  0  0  0  0  0  0  0  0  0  0
   -7.5326  -34.2756  -16.6205 O   0  0  0  0  0  0  0  0  0  0  0  0
   -5.5607  -36.0833  -17.0514 O   0  0  0  0  0  0  0  0  0  0  0  0
  1  2  1  0
  1  7  1  1
 11  1  1  0
  3  2  1  0
  2  8  1  6
  4  3  1  0
  3  9  1  1
  5  4  1  0
  4 10  1  1
  5  6  1  1
  5 11  1  0
 12  6  1  0
M  END
$$$$
