
     RDKit          3D

 12 12  0  0  0  0  0  0  0  0999 V2000
   -8.1266  -33.9536  -14.2637 C   0  0  1  0  0  0  0  0  0  0  0  0
   -7.8327  -32.4879  -14.1001 C   0  0  1  0  0  0  0  0  0  0  0  0
   -7.3325  -31.8305  -15.3478 C   0  0  2  0  0  0  0  0  0  0  0  0
   -6.2843  -32.6946  -16.0471 C   0  0  1  0  0  0  0  0  0  0  0  0
   -6.8705  -34.0649  -16.1883 C   0  0  1  0  0  0  0  0  0  0  0  0
   -5.9539  -35.0243  -16.9073 C   0  0  0  0  0  0  0  0  0  0  0  0
   -9.3333  -34.1907  -14.9143 O   0  0  0  0  0  0  0  0  0  0  0  0
   -9.0495  -31.8667  -13.7643 O   0  0  0  0  0  0  0  0  0  0  0  0
   -6.8151  -30.5843  -15.0097 O   0  0  0  0  0  0  0  0  0  0  0  0
   -6.0095  -32.0946  -17.2695 O   0  0  0  0  0  0  0  0  0  0  0  0
   -7.0581  -34.5733  -14.8951 O   0  0  0  0  0  0  0  0  0  0  0  0
   -6.2722  -36.3417  -16.6893 O   0  0  0  0  0  0  0  0  0  0  0  0
  1  2  1  0
  1  7  1  6
 11  1  1  0
  3  2  1  0
  2  8  1  6
  4  3  1  0
  3  9  1  1
  5  4  1  0
  4 10  1  6
  6  5  1  0
  5 11  1  1
  6 12  1  6
M  END
$$$$
