
     RDKit          3D

 12 12  0  0  0  0  0  0  0  0999 V2000
   -7.2350  -34.2433  -13.8757 C   0  0  1  0  0  0  0  0  0  0  0  0
   -7.3883  -32.7742  -13.5933 C   0  0  1  0  0  0  0  0  0  0  0  0
   -7.7352  -31.9613  -14.8007 C   0  0  2  0  0  0  0  0  0  0  0  0
   -6.8909  -32.3717  -16.0061 C   0  0  1  0  0  0  0  0  0  0  0  0
   -7.0028  -33.8593  -16.1325 C   0  0  1  0  0  0  0  0  0  0  0  0
   -6.2466  -34.4063  -17.3185 C   0  0  0  0  0  0  0  0  0  0  0  0
   -8.4566  -34.8959  -14.0074 O   0  0  0  0  0  0  0  0  0  0  0  0
   -8.4568  -32.6463  -12.6871 O   0  0  0  0  0  0  0  0  0  0  0  0
   -7.5535  -30.6172  -14.4915 O   0  0  0  0  0  0  0  0  0  0  0  0
   -7.3967  -31.6950  -17.1089 O   0  0  0  0  0  0  0  0  0  0  0  0
   -6.4222  -34.4199  -14.9859 O   0  0  0  0  0  0  0  0  0  0  0  0
   -6.3136  -35.7737  -17.4180 O   0  0  0  0  0  0  0  0  0  0  0  0
  1  2  1  0
  1  7  1  6
 11  1  1  0
  3  2  1  0
  2  8  1  1
  4  3  1  0
  3  9  1  1
  5  4  1  0
  4 10  1  6
  6  5  1  0
  5 11  1  1
  6 12  1  6
M  END
$$$$
