
     RDKit          3D

 12 12  0  0  0  0  0  0  0  0999 V2000
   -7.7664  -33.8351  -16.5217 C   0  0  1  0  0  0  0  0  0  0  0  0
   -8.3977  -33.0271  -15.4217 C   0  0  1  0  0  0  0  0  0  0  0  0
   -7.4088  -32.4090  -14.4841 C   0  0  2  0  0  0  0  0  0  0  0  0
   -6.3132  -33.4025  -14.1008 C   0  0  1  0  0  0  0  0  0  0  0  0
   -5.7760  -33.9747  -15.3757 C   0  0  1  0  0  0  0  0  0  0  0  0
   -4.6461  -34.9497  -15.1515 C   0  0  0  0  0  0  0  0  0  0  0  0
   -7.2442  -33.0427  -17.5390 O   0  0  0  0  0  0  0  0  0  0  0  0
   -9.0939  -31.9739  -16.0423 O   0  0  0  0  0  0  0  0  0  0  0  0
   -8.0934  -31.9549  -13.3615 O   0  0  0  0  0  0  0  0  0  0  0  0
   -5.3578  -32.6987  -13.3783 O   0  0  0  0  0  0  0  0  0  0  0  0
   -6.8174  -34.6912  -15.9824 O   0  0  0  0  0  0  0  0  0  0  0  0
   -5.0679  -36.1639  -14.6695 O   0  0  0  0  0  0  0  0  0  0  0  0
  1  2  1  0
  1  7  1  6
 11  1  1  0
  3  2  1  0
  2  8  1  6
  4  3  1  0
  3  9  1  1
  5  4  1  0
  4 10  1  6
  6  5  1  0
  5 11  1  1
  6 12  1  6
M  END
$$$$
