
     RDKit          3D

 12 12  0  0  0  0  0  0  0  0999 V2000
   -8.0909  -35.0573  -15.6107 C   0  0  1  0  0  0  0  0  0  0  0  0
   -8.5446  -33.9562  -14.7246 C   0  0  1  0  0  0  0  0  0  0  0  0
   -7.6044  -32.8258  -14.5603 C   0  0  2  0  0  0  0  0  0  0  0  0
   -6.1709  -33.1410  -14.8540 C   0  0  1  0  0  0  0  0  0  0  0  0
   -6.1122  -34.1110  -15.9877 C   0  0  1  0  0  0  0  0  0  0  0  0
   -4.7209  -34.4511  -16.4293 C   0  0  0  0  0  0  0  0  0  0  0  0
   -8.3376  -34.8064  -16.9764 O   0  0  0  0  0  0  0  0  0  0  0  0
   -9.7516  -33.4528  -15.2615 O   0  0  0  0  0  0  0  0  0  0  0  0
   -7.6966  -32.3521  -13.2441 O   0  0  0  0  0  0  0  0  0  0  0  0
   -5.5222  -31.9654  -15.2297 O   0  0  0  0  0  0  0  0  0  0  0  0
   -6.7084  -35.3049  -15.5168 O   0  0  0  0  0  0  0  0  0  0  0  0
   -4.7213  -35.3992  -17.4408 O   0  0  0  0  0  0  0  0  0  0  0  0
  1  2  1  0
  1  7  1  6
 11  1  1  0
  3  2  1  0
  2  8  1  6
  4  3  1  0
  3  9  1  1
  5  4  1  0
  4 10  1  6
  5  6  1  1
  5 11  1  0
 12  6  1  0
M  END
$$$$
