
     RDKit          3D

 12 12  0  0  0  0  0  0  0  0999 V2000
   -7.5545  -34.9529  -16.5083 C   0  0  1  0  0  0  0  0  0  0  0  0
   -8.3335  -34.0636  -15.5788 C   0  0  1  0  0  0  0  0  0  0  0  0
   -7.4753  -33.2599  -14.6533 C   0  0  2  0  0  0  0  0  0  0  0  0
   -6.3569  -34.1117  -14.0551 C   0  0  1  0  0  0  0  0  0  0  0  0
   -5.6709  -34.7968  -15.1959 C   0  0  1  0  0  0  0  0  0  0  0  0
   -4.5053  -35.6478  -14.7545 C   0  0  0  0  0  0  0  0  0  0  0  0
   -6.9948  -34.2570  -17.5750 O   0  0  0  0  0  0  0  0  0  0  0  0
   -9.0373  -33.1521  -16.3869 O   0  0  0  0  0  0  0  0  0  0  0  0
   -8.2864  -32.7219  -13.6594 O   0  0  0  0  0  0  0  0  0  0  0  0
   -5.5182  -33.2527  -13.3561 O   0  0  0  0  0  0  0  0  0  0  0  0
   -6.6048  -35.6604  -15.7858 O   0  0  0  0  0  0  0  0  0  0  0  0
   -3.9806  -36.4123  -15.7667 O   0  0  0  0  0  0  0  0  0  0  0  0
  1  2  1  0
  1  7  1  6
 11  1  1  0
  3  2  1  0
  2  8  1  6
  4  3  1  0
  3  9  1  1
  5  4  1  0
  4 10  1  6
  6  5  1  0
  5 11  1  1
  6 12  1  6
M  END
$$$$
