
     RDKit          3D

 12 12  0  0  0  0  0  0  0  0999 V2000
   -6.8513  -33.7419  -13.8204 C   0  0  1  0  0  0  0  0  0  0  0  0
   -7.4580  -32.3885  -13.8816 C   0  0  1  0  0  0  0  0  0  0  0  0
   -7.9446  -31.9547  -15.2097 C   0  0  2  0  0  0  0  0  0  0  0  0
   -7.3269  -32.6600  -16.3766 C   0  0  1  0  0  0  0  0  0  0  0  0
   -7.0859  -34.0863  -16.0065 C   0  0  1  0  0  0  0  0  0  0  0  0
   -6.5356  -34.9223  -17.1221 C   0  0  0  0  0  0  0  0  0  0  0  0
   -7.8054  -34.7704  -13.6767 O   0  0  0  0  0  0  0  0  0  0  0  0
   -8.5504  -32.3749  -12.9844 O   0  0  0  0  0  0  0  0  0  0  0  0
   -7.7127  -30.5789  -15.3460 O   0  0  0  0  0  0  0  0  0  0  0  0
   -8.2167  -32.6144  -17.4490 O   0  0  0  0  0  0  0  0  0  0  0  0
   -6.1165  -34.0682  -14.9758 O   0  0  0  0  0  0  0  0  0  0  0  0
   -5.9139  -36.0667  -16.6466 O   0  0  0  0  0  0  0  0  0  0  0  0
  1  2  1  0
  1  7  1  6
 11  1  1  0
  3  2  1  0
  2  8  1  1
  4  3  1  0
  3  9  1  6
  5  4  1  0
  4 10  1  6
  5  6  1  6
  5 11  1  0
 12  6  1  0
M  END
$$$$
