
     RDKit          3D

 12 12  0  0  0  0  0  0  0  0999 V2000
   -6.9086  -35.0221  -15.4446 C   0  0  1  0  0  0  0  0  0  0  0  0
   -7.5917  -34.1163  -14.4874 C   0  0  1  0  0  0  0  0  0  0  0  0
   -7.7007  -32.6995  -14.8992 C   0  0  2  0  0  0  0  0  0  0  0  0
   -6.7030  -32.2544  -15.9225 C   0  0  1  0  0  0  0  0  0  0  0  0
   -6.4524  -33.3780  -16.8734 C   0  0  1  0  0  0  0  0  0  0  0  0
   -5.5218  -33.0320  -17.9962 C   0  0  0  0  0  0  0  0  0  0  0  0
   -7.7636  -35.5042  -16.4572 O   0  0  0  0  0  0  0  0  0  0  0  0
   -8.8972  -34.6204  -14.2878 O   0  0  0  0  0  0  0  0  0  0  0  0
   -7.5665  -31.8895  -13.7630 O   0  0  0  0  0  0  0  0  0  0  0  0
   -7.2353  -31.1752  -16.6266 O   0  0  0  0  0  0  0  0  0  0  0  0
   -5.8377  -34.4047  -16.1180 O   0  0  0  0  0  0  0  0  0  0  0  0
   -5.2570  -34.1304  -18.7996 O   0  0  0  0  0  0  0  0  0  0  0  0
  1  2  1  0
  1  7  1  6
 11  1  1  0
  3  2  1  0
  2  8  1  6
  4  3  1  0
  3  9  1  1
  5  4  1  0
  4 10  1  6
  5  6  1  6
  5 11  1  0
 12  6  1  0
M  END
$$$$
