
     RDKit          3D

 12 12  0  0  0  0  0  0  0  0999 V2000
   -6.0339  -33.3619  -14.1040 C   0  0  1  0  0  0  0  0  0  0  0  0
   -7.1171  -32.3469  -14.1074 C   0  0  1  0  0  0  0  0  0  0  0  0
   -8.2460  -32.6052  -15.0280 C   0  0  2  0  0  0  0  0  0  0  0  0
   -7.9393  -33.5210  -16.1717 C   0  0  1  0  0  0  0  0  0  0  0  0
   -6.9911  -34.5758  -15.7049 C   0  0  1  0  0  0  0  0  0  0  0  0
   -6.6623  -35.6047  -16.7439 C   0  0  0  0  0  0  0  0  0  0  0  0
   -6.3103  -34.4637  -13.2682 O   0  0  0  0  0  0  0  0  0  0  0  0
   -7.6282  -32.2709  -12.7915 O   0  0  0  0  0  0  0  0  0  0  0  0
   -8.6943  -31.3814  -15.5441 O   0  0  0  0  0  0  0  0  0  0  0  0
   -9.1230  -34.1283  -16.5885 O   0  0  0  0  0  0  0  0  0  0  0  0
   -5.7874  -33.9077  -15.3778 O   0  0  0  0  0  0  0  0  0  0  0  0
   -5.6979  -36.4948  -16.2968 O   0  0  0  0  0  0  0  0  0  0  0  0
  1  2  1  0
  1  7  1  1
 11  1  1  0
  3  2  1  0
  2  8  1  1
  4  3  1  0
  3  9  1  6
  5  4  1  0
  4 10  1  1
  5  6  1  6
  5 11  1  0
 12  6  1  0
M  END
$$$$
