
     RDKit          3D

 12 12  0  0  0  0  0  0  0  0999 V2000
   -8.1893  -34.1830  -16.4766 C   0  0  1  0  0  0  0  0  0  0  0  0
   -8.4657  -33.1409  -15.4563 C   0  0  1  0  0  0  0  0  0  0  0  0
   -7.4511  -32.9910  -14.3900 C   0  0  2  0  0  0  0  0  0  0  0  0
   -6.5818  -34.1885  -14.1642 C   0  0  1  0  0  0  0  0  0  0  0  0
   -6.3141  -34.8456  -15.4780 C   0  0  1  0  0  0  0  0  0  0  0  0
   -5.3882  -36.0213  -15.3956 C   0  0  0  0  0  0  0  0  0  0  0  0
   -7.3402  -33.7350  -17.5096 O   0  0  0  0  0  0  0  0  0  0  0  0
   -8.5797  -31.9059  -16.1348 O   0  0  0  0  0  0  0  0  0  0  0  0
   -8.1037  -32.6803  -13.1889 O   0  0  0  0  0  0  0  0  0  0  0  0
   -5.3724  -33.7662  -13.6141 O   0  0  0  0  0  0  0  0  0  0  0  0
   -7.5624  -35.3242  -15.9417 O   0  0  0  0  0  0  0  0  0  0  0  0
   -5.4167  -36.7788  -16.5564 O   0  0  0  0  0  0  0  0  0  0  0  0
  1  2  1  0
  1  7  1  6
 11  1  1  0
  3  2  1  0
  2  8  1  6
  4  3  1  0
  3  9  1  1
  5  4  1  0
  4 10  1  6
  5  6  1  1
  5 11  1  0
 12  6  1  0
M  END
$$$$
