
     RDKit          3D

 12 12  0  0  0  0  0  0  0  0999 V2000
   -7.0886  -33.6252  -13.8501 C   0  0  1  0  0  0  0  0  0  0  0  0
   -7.3608  -32.1743  -14.1372 C   0  0  1  0  0  0  0  0  0  0  0  0
   -8.1638  -31.9459  -15.3790 C   0  0  2  0  0  0  0  0  0  0  0  0
   -7.6658  -32.8195  -16.5292 C   0  0  1  0  0  0  0  0  0  0  0  0
   -7.5950  -34.2231  -16.0136 C   0  0  1  0  0  0  0  0  0  0  0  0
   -7.1546  -35.2131  -17.0641 C   0  0  0  0  0  0  0  0  0  0  0  0
   -8.1870  -34.2801  -13.3024 O   0  0  0  0  0  0  0  0  0  0  0  0
   -8.1187  -31.6840  -13.0581 O   0  0  0  0  0  0  0  0  0  0  0  0
   -8.0938  -30.5951  -15.7043 O   0  0  0  0  0  0  0  0  0  0  0  0
   -8.5681  -32.6717  -17.5751 O   0  0  0  0  0  0  0  0  0  0  0  0
   -6.6257  -34.2467  -15.0006 O   0  0  0  0  0  0  0  0  0  0  0  0
   -5.8250  -35.1027  -17.3871 O   0  0  0  0  0  0  0  0  0  0  0  0
  1  2  1  0
  1  7  1  6
 11  1  1  0
  3  2  1  0
  2  8  1  1
  4  3  1  0
  3  9  1  6
  5  4  1  0
  4 10  1  6
  6  5  1  0
  5 11  1  1
  6 12  1  6
M  END
$$$$
