
     RDKit          3D

 12 12  0  0  0  0  0  0  0  0999 V2000
   -6.9541  -34.3767  -15.5361 C   0  0  1  0  0  0  0  0  0  0  0  0
   -7.4694  -33.8084  -14.2426 C   0  0  1  0  0  0  0  0  0  0  0  0
   -8.0881  -32.4533  -14.3837 C   0  0  2  0  0  0  0  0  0  0  0  0
   -7.2390  -31.5466  -15.2732 C   0  0  1  0  0  0  0  0  0  0  0  0
   -6.9650  -32.3040  -16.5352 C   0  0  1  0  0  0  0  0  0  0  0  0
   -6.1639  -31.5075  -17.5358 C   0  0  0  0  0  0  0  0  0  0  0  0
   -7.9680  -34.8849  -16.3419 O   0  0  0  0  0  0  0  0  0  0  0  0
   -8.4784  -34.6792  -13.7922 O   0  0  0  0  0  0  0  0  0  0  0  0
   -8.2464  -31.9091  -13.1133 O   0  0  0  0  0  0  0  0  0  0  0  0
   -7.9689  -30.3841  -15.4870 O   0  0  0  0  0  0  0  0  0  0  0  0
   -6.1909  -33.4213  -16.1911 O   0  0  0  0  0  0  0  0  0  0  0  0
   -4.8077  -31.6342  -17.3657 O   0  0  0  0  0  0  0  0  0  0  0  0
  1  2  1  0
  1  7  1  6
 11  1  1  0
  3  2  1  0
  2  8  1  6
  4  3  1  0
  3  9  1  1
  5  4  1  0
  4 10  1  6
  6  5  1  0
  5 11  1  1
  6 12  1  6
M  END
$$$$
