
     RDKit          3D

 12 12  0  0  0  0  0  0  0  0999 V2000
   -8.0049  -33.4348  -16.4818 C   0  0  1  0  0  0  0  0  0  0  0  0
   -8.2071  -32.6520  -15.2137 C   0  0  1  0  0  0  0  0  0  0  0  0
   -7.0038  -32.6231  -14.3249 C   0  0  2  0  0  0  0  0  0  0  0  0
   -6.3627  -34.0056  -14.2152 C   0  0  1  0  0  0  0  0  0  0  0  0
   -6.1650  -34.5082  -15.6115 C   0  0  1  0  0  0  0  0  0  0  0  0
   -5.4945  -35.8593  -15.6598 C   0  0  0  0  0  0  0  0  0  0  0  0
   -7.2738  -32.7339  -17.4355 O   0  0  0  0  0  0  0  0  0  0  0  0
   -8.4712  -31.3242  -15.5962 O   0  0  0  0  0  0  0  0  0  0  0  0
   -7.3917  -32.1464  -13.0769 O   0  0  0  0  0  0  0  0  0  0  0  0
   -5.1690  -33.8489  -13.5221 O   0  0  0  0  0  0  0  0  0  0  0  0
   -7.4362  -34.6642  -16.1823 O   0  0  0  0  0  0  0  0  0  0  0  0
   -5.5274  -36.4346  -16.9057 O   0  0  0  0  0  0  0  0  0  0  0  0
  1  2  1  0
  1  7  1  6
 11  1  1  0
  3  2  1  0
  2  8  1  6
  4  3  1  0
  3  9  1  1
  5  4  1  0
  4 10  1  6
  6  5  1  0
  5 11  1  1
  6 12  1  6
M  END
$$$$
