
     RDKit          3D

 12 12  0  0  0  0  0  0  0  0999 V2000
   -6.8231  -34.3890  -14.2542 C   0  0  1  0  0  0  0  0  0  0  0  0
   -7.4042  -33.1076  -13.7814 C   0  0  1  0  0  0  0  0  0  0  0  0
   -7.7710  -32.1338  -14.8330 C   0  0  2  0  0  0  0  0  0  0  0  0
   -7.0665  -32.3130  -16.1416 C   0  0  1  0  0  0  0  0  0  0  0  0
   -6.8769  -33.7727  -16.3920 C   0  0  1  0  0  0  0  0  0  0  0  0
   -6.2455  -34.0887  -17.7141 C   0  0  0  0  0  0  0  0  0  0  0  0
   -7.7997  -35.3360  -14.6262 O   0  0  0  0  0  0  0  0  0  0  0  0
   -8.5682  -33.4195  -13.0422 O   0  0  0  0  0  0  0  0  0  0  0  0
   -7.5100  -30.8406  -14.3590 O   0  0  0  0  0  0  0  0  0  0  0  0
   -7.8618  -31.7791  -17.1546 O   0  0  0  0  0  0  0  0  0  0  0  0
   -5.9978  -34.2351  -15.3841 O   0  0  0  0  0  0  0  0  0  0  0  0
   -5.8661  -35.4197  -17.7960 O   0  0  0  0  0  0  0  0  0  0  0  0
  1  2  1  0
  1  7  1  6
 11  1  1  0
  3  2  1  0
  2  8  1  6
  4  3  1  0
  3  9  1  1
  5  4  1  0
  4 10  1  6
  5  6  1  6
  5 11  1  0
 12  6  1  0
M  END
$$$$
