
     RDKit          3D

 12 12  0  0  0  0  0  0  0  0999 V2000
   -7.9833  -34.3950  -14.6494 C   0  0  1  0  0  0  0  0  0  0  0  0
   -7.9006  -32.9980  -14.1544 C   0  0  1  0  0  0  0  0  0  0  0  0
   -7.1544  -32.0491  -15.0099 C   0  0  2  0  0  0  0  0  0  0  0  0
   -6.1709  -32.6751  -15.9488 C   0  0  1  0  0  0  0  0  0  0  0  0
   -6.7272  -33.9718  -16.4371 C   0  0  1  0  0  0  0  0  0  0  0  0
   -5.8644  -34.6647  -17.4480 C   0  0  0  0  0  0  0  0  0  0  0  0
   -9.0268  -34.5928  -15.5771 O   0  0  0  0  0  0  0  0  0  0  0  0
   -9.2240  -32.5208  -14.0149 O   0  0  0  0  0  0  0  0  0  0  0  0
   -6.4713  -31.1432  -14.1867 O   0  0  0  0  0  0  0  0  0  0  0  0
   -5.9862  -31.8230  -17.0367 O   0  0  0  0  0  0  0  0  0  0  0  0
   -6.8112  -34.8166  -15.3050 O   0  0  0  0  0  0  0  0  0  0  0  0
   -4.7981  -35.3184  -16.8499 O   0  0  0  0  0  0  0  0  0  0  0  0
  1  2  1  0
  1  7  1  6
 11  1  1  0
  3  2  1  0
  2  8  1  6
  4  3  1  0
  3  9  1  1
  5  4  1  0
  4 10  1  6
  5  6  1  6
  5 11  1  0
 12  6  1  0
M  END
$$$$
