
     RDKit          3D

 12 12  0  0  0  0  0  0  0  0999 V2000
   -5.6855  -33.5878  -14.1693 C   0  0  1  0  0  0  0  0  0  0  0  0
   -6.6297  -32.4904  -13.8414 C   0  0  1  0  0  0  0  0  0  0  0  0
   -7.8192  -32.3750  -14.7136 C   0  0  2  0  0  0  0  0  0  0  0  0
   -7.6787  -32.9954  -16.0686 C   0  0  1  0  0  0  0  0  0  0  0  0
   -6.8543  -34.2346  -15.9493 C   0  0  1  0  0  0  0  0  0  0  0  0
   -6.7021  -34.9930  -17.2330 C   0  0  0  0  0  0  0  0  0  0  0  0
   -6.0655  -34.8286  -13.6172 O   0  0  0  0  0  0  0  0  0  0  0  0
   -7.0726  -32.6972  -12.5149 O   0  0  0  0  0  0  0  0  0  0  0  0
   -8.1287  -31.0172  -14.8743 O   0  0  0  0  0  0  0  0  0  0  0  0
   -8.9463  -33.3380  -16.5373 O   0  0  0  0  0  0  0  0  0  0  0  0
   -5.5629  -33.8129  -15.5534 O   0  0  0  0  0  0  0  0  0  0  0  0
   -5.8329  -36.0643  -17.0956 O   0  0  0  0  0  0  0  0  0  0  0  0
  1  2  1  0
  1  7  1  1
 11  1  1  0
  3  2  1  0
  2  8  1  1
  4  3  1  0
  3  9  1  6
  5  4  1  0
  4 10  1  1
  5  6  1  6
  5 11  1  0
 12  6  1  0
M  END
$$$$
