
     RDKit          3D

 12 12  0  0  0  0  0  0  0  0999 V2000
   -7.7491  -35.1764  -16.1511 C   0  0  1  0  0  0  0  0  0  0  0  0
   -8.4357  -34.2504  -15.1853 C   0  0  1  0  0  0  0  0  0  0  0  0
   -7.5506  -33.1653  -14.6580 C   0  0  2  0  0  0  0  0  0  0  0  0
   -6.1771  -33.7105  -14.2698 C   0  0  1  0  0  0  0  0  0  0  0  0
   -5.6699  -34.4929  -15.4411 C   0  0  1  0  0  0  0  0  0  0  0  0
   -4.2900  -35.0604  -15.2149 C   0  0  0  0  0  0  0  0  0  0  0  0
   -7.6114  -34.6236  -17.4204 O   0  0  0  0  0  0  0  0  0  0  0  0
   -9.4777  -33.6263  -15.8951 O   0  0  0  0  0  0  0  0  0  0  0  0
   -8.1839  -32.5724  -13.5705 O   0  0  0  0  0  0  0  0  0  0  0  0
   -5.3763  -32.6182  -13.9605 O   0  0  0  0  0  0  0  0  0  0  0  0
   -6.5338  -35.5827  -15.6199 O   0  0  0  0  0  0  0  0  0  0  0  0
   -3.8912  -35.9224  -16.2060 O   0  0  0  0  0  0  0  0  0  0  0  0
  1  2  1  0
  1  7  1  6
 11  1  1  0
  3  2  1  0
  2  8  1  6
  4  3  1  0
  3  9  1  1
  5  4  1  0
  4 10  1  6
  6  5  1  0
  5 11  1  1
  6 12  1  6
M  END
$$$$
