
     RDKit          3D

 12 12  0  0  0  0  0  0  0  0999 V2000
   -6.6392  -33.9659  -16.2858 C   0  0  1  0  0  0  0  0  0  0  0  0
   -7.4437  -34.1935  -15.0358 C   0  0  1  0  0  0  0  0  0  0  0  0
   -7.8497  -32.9313  -14.3422 C   0  0  2  0  0  0  0  0  0  0  0  0
   -6.6897  -31.9394  -14.2733 C   0  0  1  0  0  0  0  0  0  0  0  0
   -6.1438  -31.8075  -15.6610 C   0  0  1  0  0  0  0  0  0  0  0  0
   -5.0089  -30.8171  -15.7538 C   0  0  0  0  0  0  0  0  0  0  0  0
   -7.4245  -33.5822  -17.3682 O   0  0  0  0  0  0  0  0  0  0  0  0
   -8.6252  -34.8480  -15.4292 O   0  0  0  0  0  0  0  0  0  0  0  0
   -8.3104  -33.2582  -13.0709 O   0  0  0  0  0  0  0  0  0  0  0  0
   -7.2007  -30.7468  -13.7768 O   0  0  0  0  0  0  0  0  0  0  0  0
   -5.6236  -33.0577  -16.0248 O   0  0  0  0  0  0  0  0  0  0  0  0
   -4.4487  -30.7530  -17.0054 O   0  0  0  0  0  0  0  0  0  0  0  0
  1  2  1  0
  1  7  1  6
 11  1  1  0
  3  2  1  0
  2  8  1  6
  4  3  1  0
  3  9  1  1
  5  4  1  0
  4 10  1  6
  6  5  1  0
  5 11  1  1
  6 12  1  6
M  END
$$$$
