
     RDKit          3D

 12 12  0  0  0  0  0  0  0  0999 V2000
   -8.1086  -35.1100  -15.8961 C   0  0  1  0  0  0  0  0  0  0  0  0
   -8.5608  -34.1077  -14.8702 C   0  0  1  0  0  0  0  0  0  0  0  0
   -7.5436  -33.0523  -14.5695 C   0  0  2  0  0  0  0  0  0  0  0  0
   -6.1492  -33.6562  -14.4106 C   0  0  1  0  0  0  0  0  0  0  0  0
   -5.9043  -34.5139  -15.6129 C   0  0  1  0  0  0  0  0  0  0  0  0
   -4.5344  -35.1472  -15.6132 C   0  0  0  0  0  0  0  0  0  0  0  0
   -8.1819  -34.6194  -17.1959 O   0  0  0  0  0  0  0  0  0  0  0  0
   -9.6855  -33.4570  -15.4093 O   0  0  0  0  0  0  0  0  0  0  0  0
   -7.9367  -32.3801  -13.4167 O   0  0  0  0  0  0  0  0  0  0  0  0
   -5.2547  -32.5981  -14.3090 O   0  0  0  0  0  0  0  0  0  0  0  0
   -6.8365  -35.5606  -15.5751 O   0  0  0  0  0  0  0  0  0  0  0  0
   -4.5685  -36.5083  -15.7878 O   0  0  0  0  0  0  0  0  0  0  0  0
  1  2  1  0
  1  7  1  6
 11  1  1  0
  3  2  1  0
  2  8  1  6
  4  3  1  0
  3  9  1  1
  5  4  1  0
  4 10  1  6
  6  5  1  0
  5 11  1  1
  6 12  1  6
M  END
$$$$
