
     RDKit          3D

 12 12  0  0  0  0  0  0  0  0999 V2000
   -6.9317  -32.3808  -16.8882 C   0  0  1  0  0  0  0  0  0  0  0  0
   -7.7234  -31.6391  -15.8467 C   0  0  1  0  0  0  0  0  0  0  0  0
   -7.6657  -32.2632  -14.4880 C   0  0  2  0  0  0  0  0  0  0  0  0
   -7.8354  -33.7796  -14.5674 C   0  0  1  0  0  0  0  0  0  0  0  0
   -6.8576  -34.2765  -15.5863 C   0  0  1  0  0  0  0  0  0  0  0  0
   -6.8829  -35.7775  -15.7412 C   0  0  0  0  0  0  0  0  0  0  0  0
   -5.5645  -32.1396  -16.7970 O   0  0  0  0  0  0  0  0  0  0  0  0
   -7.1500  -30.3590  -15.7389 O   0  0  0  0  0  0  0  0  0  0  0  0
   -8.6541  -31.6855  -13.6977 O   0  0  0  0  0  0  0  0  0  0  0  0
   -7.5960  -34.2847  -13.2956 O   0  0  0  0  0  0  0  0  0  0  0  0
   -7.2325  -33.7334  -16.8234 O   0  0  0  0  0  0  0  0  0  0  0  0
   -6.0732  -36.2299  -16.7531 O   0  0  0  0  0  0  0  0  0  0  0  0
  1  2  1  0
  1  7  1  1
 11  1  1  0
  3  2  1  0
  2  8  1  1
  4  3  1  0
  3  9  1  1
  5  4  1  0
  4 10  1  1
  6  5  1  0
  5 11  1  6
  6 12  1  6
M  END
$$$$
