
     RDKit          3D

 12 12  0  0  0  0  0  0  0  0999 V2000
   -7.3906  -32.4463  -16.6037 C   0  0  1  0  0  0  0  0  0  0  0  0
   -8.1093  -31.9402  -15.3836 C   0  0  1  0  0  0  0  0  0  0  0  0
   -7.3960  -32.2298  -14.1004 C   0  0  2  0  0  0  0  0  0  0  0  0
   -6.8652  -33.6622  -14.0729 C   0  0  1  0  0  0  0  0  0  0  0  0
   -6.0956  -33.8680  -15.3404 C   0  0  1  0  0  0  0  0  0  0  0  0
   -5.4711  -35.2388  -15.4320 C   0  0  0  0  0  0  0  0  0  0  0  0
   -6.3225  -31.6353  -16.9737 O   0  0  0  0  0  0  0  0  0  0  0  0
   -8.1832  -30.5409  -15.5094 O   0  0  0  0  0  0  0  0  0  0  0  0
   -8.2752  -31.9971  -13.0478 O   0  0  0  0  0  0  0  0  0  0  0  0
   -6.0774  -33.7843  -12.9351 O   0  0  0  0  0  0  0  0  0  0  0  0
   -7.0055  -33.7636  -16.4021 O   0  0  0  0  0  0  0  0  0  0  0  0
   -6.1253  -36.0735  -16.3035 O   0  0  0  0  0  0  0  0  0  0  0  0
  1  2  1  0
  1  7  1  1
 11  1  1  0
  3  2  1  0
  2  8  1  6
  4  3  1  0
  3  9  1  1
  5  4  1  0
  4 10  1  1
  6  5  1  0
  5 11  1  6
  6 12  1  6
M  END
$$$$
