
     RDKit          3D

 12 12  0  0  0  0  0  0  0  0999 V2000
   -7.1079  -33.1905  -15.9487 C   0  0  1  0  0  0  0  0  0  0  0  0
   -8.0908  -33.3495  -14.8478 C   0  0  1  0  0  0  0  0  0  0  0  0
   -8.2035  -32.2121  -13.9085 C   0  0  2  0  0  0  0  0  0  0  0  0
   -7.0115  -31.3081  -13.8562 C   0  0  1  0  0  0  0  0  0  0  0  0
   -6.4281  -31.1983  -15.2263 C   0  0  1  0  0  0  0  0  0  0  0  0
   -5.2664  -30.2562  -15.3218 C   0  0  0  0  0  0  0  0  0  0  0  0
   -7.6237  -32.4814  -17.0532 O   0  0  0  0  0  0  0  0  0  0  0  0
   -9.3570  -33.5609  -15.4400 O   0  0  0  0  0  0  0  0  0  0  0  0
   -8.4400  -32.7138  -12.6212 O   0  0  0  0  0  0  0  0  0  0  0  0
   -7.4263  -30.0445  -13.4379 O   0  0  0  0  0  0  0  0  0  0  0  0
   -5.9520  -32.4892  -15.5571 O   0  0  0  0  0  0  0  0  0  0  0  0
   -4.6627  -30.3113  -16.5687 O   0  0  0  0  0  0  0  0  0  0  0  0
  1  2  1  0
  1  7  1  6
 11  1  1  0
  3  2  1  0
  2  8  1  6
  4  3  1  0
  3  9  1  1
  5  4  1  0
  4 10  1  6
  5  6  1  1
  5 11  1  0
 12  6  1  0
M  END
$$$$
