
     RDKit          3D

 12 12  0  0  0  0  0  0  0  0999 V2000
   -6.6001  -32.0545  -16.6184 C   0  0  1  0  0  0  0  0  0  0  0  0
   -7.5403  -31.4862  -15.5913 C   0  0  1  0  0  0  0  0  0  0  0  0
   -7.4981  -32.1985  -14.2761 C   0  0  2  0  0  0  0  0  0  0  0  0
   -7.4819  -33.7142  -14.4672 C   0  0  1  0  0  0  0  0  0  0  0  0
   -6.3878  -34.0206  -15.4420 C   0  0  1  0  0  0  0  0  0  0  0  0
   -6.2254  -35.4992  -15.6968 C   0  0  0  0  0  0  0  0  0  0  0  0
   -5.2800  -31.6674  -16.4114 O   0  0  0  0  0  0  0  0  0  0  0  0
   -7.1304  -30.1609  -15.3577 O   0  0  0  0  0  0  0  0  0  0  0  0
   -8.5972  -31.7964  -13.5241 O   0  0  0  0  0  0  0  0  0  0  0  0
   -7.2680  -34.2816  -13.2173 O   0  0  0  0  0  0  0  0  0  0  0  0
   -6.7426  -33.4336  -16.6649 O   0  0  0  0  0  0  0  0  0  0  0  0
   -7.1371  -35.9961  -16.5947 O   0  0  0  0  0  0  0  0  0  0  0  0
  1  2  1  0
  1  7  1  1
 11  1  1  0
  3  2  1  0
  2  8  1  1
  4  3  1  0
  3  9  1  1
  5  4  1  0
  4 10  1  1
  6  5  1  0
  5 11  1  6
  6 12  1  6
M  END
$$$$
