
     RDKit          3D

 12 12  0  0  0  0  0  0  0  0999 V2000
   -7.3501  -32.1185  -16.6973 C   0  0  1  0  0  0  0  0  0  0  0  0
   -8.0402  -31.5836  -15.4969 C   0  0  1  0  0  0  0  0  0  0  0  0
   -8.0293  -32.4533  -14.3001 C   0  0  2  0  0  0  0  0  0  0  0  0
   -7.8070  -33.9085  -14.5716 C   0  0  1  0  0  0  0  0  0  0  0  0
   -6.8468  -34.0468  -15.7067 C   0  0  1  0  0  0  0  0  0  0  0  0
   -6.4822  -35.4644  -16.0291 C   0  0  0  0  0  0  0  0  0  0  0  0
   -5.9591  -31.8864  -16.6856 O   0  0  0  0  0  0  0  0  0  0  0  0
   -7.4150  -30.3610  -15.1606 O   0  0  0  0  0  0  0  0  0  0  0  0
   -9.2498  -32.3063  -13.6265 O   0  0  0  0  0  0  0  0  0  0  0  0
   -7.2527  -34.4960  -13.4352 O   0  0  0  0  0  0  0  0  0  0  0  0
   -7.4986  -33.5107  -16.8426 O   0  0  0  0  0  0  0  0  0  0  0  0
   -5.8790  -35.5684  -17.2731 O   0  0  0  0  0  0  0  0  0  0  0  0
  1  2  1  0
  1  7  1  1
 11  1  1  0
  3  2  1  0
  2  8  1  1
  4  3  1  0
  3  9  1  6
  5  4  1  0
  4 10  1  1
  5  6  1  6
  5 11  1  0
 12  6  1  0
M  END
$$$$
