
     RDKit          3D

 12 12  0  0  0  0  0  0  0  0999 V2000
   -7.6364  -33.7333  -16.5900 C   0  0  1  0  0  0  0  0  0  0  0  0
   -8.1309  -32.8905  -15.4725 C   0  0  1  0  0  0  0  0  0  0  0  0
   -7.3153  -32.9050  -14.2382 C   0  0  2  0  0  0  0  0  0  0  0  0
   -6.4345  -34.1036  -14.0702 C   0  0  1  0  0  0  0  0  0  0  0  0
   -5.9199  -34.5165  -15.4097 C   0  0  1  0  0  0  0  0  0  0  0  0
   -4.9608  -35.6674  -15.3674 C   0  0  0  0  0  0  0  0  0  0  0  0
   -6.6527  -33.0938  -17.3724 O   0  0  0  0  0  0  0  0  0  0  0  0
   -8.1951  -31.5595  -15.9444 O   0  0  0  0  0  0  0  0  0  0  0  0
   -8.1724  -32.8223  -13.1320 O   0  0  0  0  0  0  0  0  0  0  0  0
   -5.3559  -33.7559  -13.2581 O   0  0  0  0  0  0  0  0  0  0  0  0
   -7.0482  -34.9355  -16.1539 O   0  0  0  0  0  0  0  0  0  0  0  0
   -5.4404  -36.7607  -16.0723 O   0  0  0  0  0  0  0  0  0  0  0  0
  1  2  1  0
  1  7  1  1
 11  1  1  0
  3  2  1  0
  2  8  1  6
  4  3  1  0
  3  9  1  1
  5  4  1  0
  4 10  1  1
  5  6  1  1
  5 11  1  0
 12  6  1  0
M  END
$$$$
