
     RDKit          3D

 12 12  0  0  0  0  0  0  0  0999 V2000
   -7.9145  -33.7800  -16.5567 C   0  0  1  0  0  0  0  0  0  0  0  0
   -8.3715  -32.8179  -15.5229 C   0  0  1  0  0  0  0  0  0  0  0  0
   -7.4854  -32.6564  -14.3492 C   0  0  2  0  0  0  0  0  0  0  0  0
   -6.5558  -33.8007  -14.0900 C   0  0  1  0  0  0  0  0  0  0  0  0
   -6.1064  -34.3637  -15.3979 C   0  0  1  0  0  0  0  0  0  0  0  0
   -5.1076  -35.4743  -15.2740 C   0  0  0  0  0  0  0  0  0  0  0  0
   -7.0005  -33.2172  -17.4714 O   0  0  0  0  0  0  0  0  0  0  0  0
   -8.5086  -31.5583  -16.1500 O   0  0  0  0  0  0  0  0  0  0  0  0
   -8.2789  -32.4592  -13.2106 O   0  0  0  0  0  0  0  0  0  0  0  0
   -5.4443  -33.3256  -13.3953 O   0  0  0  0  0  0  0  0  0  0  0  0
   -7.2611  -34.9022  -16.0134 O   0  0  0  0  0  0  0  0  0  0  0  0
   -4.9169  -36.1293  -16.4809 O   0  0  0  0  0  0  0  0  0  0  0  0
  1  2  1  0
  1  7  1  6
 11  1  1  0
  3  2  1  0
  2  8  1  6
  4  3  1  0
  3  9  1  1
  5  4  1  0
  4 10  1  6
  5  6  1  1
  5 11  1  0
 12  6  1  0
M  END
$$$$
