
     RDKit          3D

 60 60  0  0  0  0  0  0  0  0999 V2000
   24.4448   63.8126   35.5340 N   0  0  0  0  0  4  0  0  0  0  0  0
   25.7145   64.2775   35.0665 C   0  0  2  0  0  0  0  0  0  0  0  0
   26.0368   63.9610   33.6713 C   0  0  0  0  0  0  0  0  0  0  0  0
   25.1954   64.3178   32.7998 O   0  0  0  0  0  0  0  0  0  0  0  0
   26.8358   63.7350   35.9491 C   0  0  2  0  0  0  0  0  0  0  0  0
   27.9850   64.4523   35.6276 O   0  0  0  0  0  0  0  0  0  0  0  0
   27.0804   62.2772   35.6975 C   0  0  0  0  0  0  0  0  0  0  0  0
   27.2023   63.2926   33.2158 N   0  0  0  0  0  0  0  0  0  0  0  0
   27.5853   63.3423   31.7973 C   0  0  2  0  0  0  0  0  0  0  0  0
   28.6746   62.4071   31.5112 C   0  0  0  0  0  0  0  0  0  0  0  0
   29.4702   62.0786   32.4593 O   0  0  0  0  0  0  0  0  0  0  0  0
   28.0042   64.7772   31.4941 C   0  0  2  0  0  0  0  0  0  0  0  0
   29.1270   65.1044   32.2352 O   0  0  0  0  0  0  0  0  0  0  0  0
   26.8912   65.7699   31.7272 C   0  0  0  0  0  0  0  0  0  0  0  0
   28.8567   61.8693   30.2176 N   0  0  0  0  0  0  0  0  0  0  0  0
   29.8841   60.8342   30.0123 C   0  0  2  0  0  0  0  0  0  0  0  0
   31.2016   61.4230   30.2792 C   0  0  0  0  0  0  0  0  0  0  0  0
   31.3244   62.6918   30.2870 O   0  0  0  0  0  0  0  0  0  0  0  0
   29.8087   60.4358   28.5098 C   0  0  0  0  0  0  0  0  0  0  0  0
   32.3657   60.6644   30.5295 N   0  0  0  0  0  0  0  0  0  0  0  0
   33.6925   61.1836   30.8363 C   0  0  2  0  0  0  0  0  0  0  0  0
   34.4517   61.3791   29.5409 C   0  0  0  0  0  0  0  0  0  0  0  0
   34.0990   60.8024   28.5120 O   0  0  0  0  0  0  0  0  0  0  0  0
   34.3363   60.1667   31.7318 C   0  0  0  0  0  0  0  0  0  0  0  0
   33.4192   58.9899   31.7341 C   0  0  0  0  0  0  0  0  0  0  0  0
   32.4302   59.2158   30.5897 C   0  0  0  0  0  0  0  0  0  0  0  0
   35.5751   62.2300   29.5105 N   0  0  0  0  0  0  0  0  0  0  0  0
   36.4950   62.4771   28.4733 C   0  0  2  0  0  0  0  0  0  0  0  0
   36.7343   61.3982   27.5107 C   0  0  0  0  0  0  0  0  0  0  0  0
   37.5252   61.6507   26.5396 O   0  0  0  0  0  0  0  0  0  0  0  0
   37.7975   63.1308   28.8402 C   0  0  0  0  0  0  0  0  0  0  0  0
   38.6509   62.3585   29.5967 O   0  0  0  0  0  0  0  0  0  0  0  0
   36.1828   60.0926   27.5297 N   0  0  0  0  0  0  0  0  0  0  0  0
   36.4881   59.1183   26.4982 C   0  0  2  0  0  0  0  0  0  0  0  0
   36.5251   59.8378   25.1679 C   0  0  0  0  0  0  0  0  0  0  0  0
   36.1782   61.0278   25.1379 O   0  0  0  0  0  0  0  0  0  0  0  0
   35.4401   58.0667   26.4630 C   0  0  0  0  0  0  0  0  0  0  0  0
   35.4976   57.0359   25.4090 C   0  0  1  0  0  0  0  0  0  0  0  0
   36.5896   56.0106   25.6122 C   0  0  0  0  0  0  0  0  0  0  0  0
   34.2106   56.3407   25.0867 C   0  0  0  0  0  0  0  0  0  0  0  0
   36.9433   59.1950   23.9685 N   0  0  0  0  0  0  0  0  0  0  0  0
   37.4671   59.9443   22.8477 C   0  0  2  0  0  0  0  0  0  0  0  0
   37.8308   59.1215   21.6882 C   0  0  0  0  0  0  0  0  0  0  0  0
   37.2867   57.9742   21.5656 O   0  0  0  0  0  0  0  0  0  0  0  0
   38.7810   60.6412   23.2854 C   0  0  0  0  0  0  0  0  0  0  0  0
   39.8731   59.9186   22.8690 O   0  0  0  0  0  0  0  0  0  0  0  0
   38.7448   59.5074   20.6792 N   0  0  0  0  0  0  0  0  0  0  0  0
   38.4575   59.2968   19.2897 C   0  0  0  0  0  0  0  0  0  0  0  0
   38.3451   57.8899   18.8955 C   0  0  0  0  0  0  0  0  0  0  0  0
   39.2983   57.1016   19.2574 O   0  0  0  0  0  0  0  0  0  0  0  0
   37.2689   57.3443   18.1576 N   0  0  0  0  0  0  0  0  0  0  0  0
   37.3583   55.9227   17.7683 C   0  0  2  0  0  0  0  0  0  0  0  0
   38.4440   55.7322   16.8194 C   0  0  0  0  0  0  0  0  0  0  0  0
   38.9548   54.5877   16.5851 O   0  0  0  0  0  0  0  0  0  0  0  0
   36.0005   55.4185   17.4017 C   0  0  0  0  0  0  0  0  0  0  0  0
   34.9753   55.3823   18.4715 C   0  0  0  0  0  0  0  0  0  0  0  0
   33.6626   54.7805   18.1413 C   0  0  0  0  0  0  0  0  0  0  0  0
   32.6907   54.8515   19.3128 C   0  0  0  0  0  0  0  0  0  0  0  0
   31.3322   55.0628   18.8049 N   0  0  0  0  0  4  0  0  0  0  0  0
   39.0087   56.7784   16.0929 O   0  0  0  0  0  0  0  0  0  0  0  0
  2  1  1  1
  2  3  1  0
  2  5  1  0
  3  4  2  0
  3  8  1  0
  5  6  1  0
  5  7  1  6
  9  8  1  1
  9 10  1  0
  9 12  1  0
 10 11  2  0
 10 15  1  0
 12 13  1  0
 12 14  1  1
 15 16  1  0
 16 17  1  0
 16 19  1  6
 17 18  2  0
 17 20  1  0
 20 21  1  0
 20 26  1  0
 21 22  1  6
 21 24  1  0
 22 23  2  0
 22 27  1  0
 24 25  1  0
 25 26  1  0
 27 28  1  0
 28 29  1  0
 28 31  1  1
 29 30  2  0
 29 33  1  0
 31 32  1  0
 33 34  1  0
 34 35  1  0
 34 37  1  6
 35 36  2  0
 35 41  1  0
 37 38  1  0
 38 39  1  1
 38 40  1  0
 41 42  1  0
 42 43  1  0
 42 45  1  1
 43 44  2  0
 43 47  1  0
 45 46  1  0
 47 48  1  0
 48 49  1  0
 49 50  2  0
 49 51  1  0
 51 52  1  0
 52 53  1  0
 52 55  1  6
 53 54  2  0
 53 60  1  0
 55 56  1  0
 56 57  1  0
 57 58  1  0
 58 59  1  0
M  CHG  2   1   1  59   1
M  END
$$$$
