
     RDKit          3D

 60 60  0  0  0  0  0  0  0  0999 V2000
   24.8939   62.9440   35.1626 N   0  0  0  0  0  4  0  0  0  0  0  0
   25.9811   63.6317   34.5368 C   0  0  2  0  0  0  0  0  0  0  0  0
   26.3440   63.1662   33.1943 C   0  0  0  0  0  0  0  0  0  0  0  0
   25.6953   62.1822   32.7406 O   0  0  0  0  0  0  0  0  0  0  0  0
   27.2271   63.5659   35.4165 C   0  0  2  0  0  0  0  0  0  0  0  0
   27.5020   62.2173   35.6262 O   0  0  0  0  0  0  0  0  0  0  0  0
   27.0041   64.2333   36.7405 C   0  0  0  0  0  0  0  0  0  0  0  0
   27.3538   63.7186   32.3649 N   0  0  0  0  0  0  0  0  0  0  0  0
   27.6468   63.1277   31.0510 C   0  0  2  0  0  0  0  0  0  0  0  0
   28.7362   62.1540   31.1409 C   0  0  0  0  0  0  0  0  0  0  0  0
   29.6709   62.3513   31.9937 O   0  0  0  0  0  0  0  0  0  0  0  0
   28.0149   64.2735   30.1141 C   0  0  2  0  0  0  0  0  0  0  0  0
   29.1681   64.8943   30.5632 O   0  0  0  0  0  0  0  0  0  0  0  0
   26.8931   65.2690   29.9436 C   0  0  0  0  0  0  0  0  0  0  0  0
   28.7688   61.0132   30.3082 N   0  0  0  0  0  0  0  0  0  0  0  0
   30.0530   60.3272   30.0859 C   0  0  2  0  0  0  0  0  0  0  0  0
   31.1332   61.1783   30.5986 C   0  0  0  0  0  0  0  0  0  0  0  0
   31.0143   62.4452   30.5226 O   0  0  0  0  0  0  0  0  0  0  0  0
   30.2134   60.1888   28.5442 C   0  0  0  0  0  0  0  0  0  0  0  0
   32.3196   60.6789   31.1786 N   0  0  0  0  0  0  0  0  0  0  0  0
   33.4309   61.4654   31.6985 C   0  0  2  0  0  0  0  0  0  0  0  0
   34.4245   61.7049   30.5813 C   0  0  0  0  0  0  0  0  0  0  0  0
   34.3153   62.6829   29.8415 O   0  0  0  0  0  0  0  0  0  0  0  0
   34.0139   60.6621   32.8234 C   0  0  0  0  0  0  0  0  0  0  0  0
   33.3355   59.3344   32.7675 C   0  0  0  0  0  0  0  0  0  0  0  0
   32.6144   59.2787   31.4200 C   0  0  0  0  0  0  0  0  0  0  0  0
   35.4867   60.7995   30.3843 N   0  0  0  0  0  0  0  0  0  0  0  0
   36.5812   60.8674   29.5008 C   0  0  2  0  0  0  0  0  0  0  0  0
   36.3498   61.4648   28.1827 C   0  0  0  0  0  0  0  0  0  0  0  0
   35.2345   61.2065   27.6154 O   0  0  0  0  0  0  0  0  0  0  0  0
   37.4390   59.6414   29.3611 C   0  0  0  0  0  0  0  0  0  0  0  0
   38.4880   59.7549   28.4758 O   0  0  0  0  0  0  0  0  0  0  0  0
   37.2295   62.3037   27.4537 N   0  0  0  0  0  0  0  0  0  0  0  0
   36.9059   62.7768   26.1204 C   0  0  2  0  0  0  0  0  0  0  0  0
   37.1048   61.6305   25.1535 C   0  0  0  0  0  0  0  0  0  0  0  0
   38.1084   60.9158   25.2937 O   0  0  0  0  0  0  0  0  0  0  0  0
   37.8014   63.9008   25.7461 C   0  0  0  0  0  0  0  0  0  0  0  0
   37.4162   64.7779   24.6239 C   0  0  1  0  0  0  0  0  0  0  0  0
   38.4349   65.8479   24.3038 C   0  0  0  0  0  0  0  0  0  0  0  0
   36.9923   64.0948   23.3601 C   0  0  0  0  0  0  0  0  0  0  0  0
   36.1832   61.3534   24.1044 N   0  0  0  0  0  0  0  0  0  0  0  0
   36.0762   60.0370   23.5149 C   0  0  2  0  0  0  0  0  0  0  0  0
   35.0157   59.9103   22.5084 C   0  0  0  0  0  0  0  0  0  0  0  0
   33.8056   60.0660   22.8812 O   0  0  0  0  0  0  0  0  0  0  0  0
   35.7101   59.0215   24.6276 C   0  0  0  0  0  0  0  0  0  0  0  0
   34.4438   59.2623   25.1038 O   0  0  0  0  0  0  0  0  0  0  0  0
   35.2322   59.6312   21.1381 N   0  0  0  0  0  0  0  0  0  0  0  0
   35.6609   58.3351   20.6977 C   0  0  0  0  0  0  0  0  0  0  0  0
   36.4927   58.3440   19.4914 C   0  0  0  0  0  0  0  0  0  0  0  0
   36.4076   59.3790   18.7281 O   0  0  0  0  0  0  0  0  0  0  0  0
   37.3777   57.3065   19.1162 N   0  0  0  0  0  0  0  0  0  0  0  0
   36.9719   56.4338   17.9962 C   0  0  2  0  0  0  0  0  0  0  0  0
   36.7122   57.2330   16.8092 C   0  0  0  0  0  0  0  0  0  0  0  0
   36.3794   58.4623   16.8715 O   0  0  0  0  0  0  0  0  0  0  0  0
   35.9125   55.4872   18.4586 C   0  0  0  0  0  0  0  0  0  0  0  0
   35.4098   54.4954   17.4784 C   0  0  0  0  0  0  0  0  0  0  0  0
   34.3223   53.5903   17.9170 C   0  0  0  0  0  0  0  0  0  0  0  0
   34.4643   52.1955   17.3200 C   0  0  0  0  0  0  0  0  0  0  0  0
   35.5320   51.4744   18.0186 N   0  0  0  0  0  4  0  0  0  0  0  0
   36.8074   56.7235   15.5159 O   0  0  0  0  0  0  0  0  0  0  0  0
  2  1  1  1
  2  3  1  0
  2  5  1  0
  3  4  2  0
  3  8  1  0
  5  6  1  0
  5  7  1  1
  9  8  1  1
  9 10  1  0
  9 12  1  0
 10 11  2  0
 10 15  1  0
 12 13  1  0
 12 14  1  1
 15 16  1  0
 16 17  1  0
 16 19  1  6
 17 18  2  0
 17 20  1  0
 20 21  1  0
 20 26  1  0
 21 22  1  6
 21 24  1  0
 22 23  2  0
 22 27  1  0
 24 25  1  0
 25 26  1  0
 27 28  1  0
 28 29  1  0
 28 31  1  6
 29 30  2  0
 29 33  1  0
 31 32  1  0
 33 34  1  0
 34 35  1  0
 34 37  1  6
 35 36  2  0
 35 41  1  0
 37 38  1  0
 38 39  1  6
 38 40  1  0
 41 42  1  0
 42 43  1  0
 42 45  1  1
 43 44  2  0
 43 47  1  0
 45 46  1  0
 47 48  1  0
 48 49  1  0
 49 50  2  0
 49 51  1  0
 51 52  1  0
 52 53  1  0
 52 55  1  1
 53 54  2  0
 53 60  1  0
 55 56  1  0
 56 57  1  0
 57 58  1  0
 58 59  1  0
M  CHG  2   1   1  59   1
M  END
$$$$
