
     RDKit          3D

 60 60  0  0  0  0  0  0  0  0999 V2000
   26.1644   63.7299   36.1030 N   0  0  0  0  0  4  0  0  0  0  0  0
   26.9870   64.4322   35.1667 C   0  0  2  0  0  0  0  0  0  0  0  0
   27.3100   63.7098   33.9319 C   0  0  0  0  0  0  0  0  0  0  0  0
   26.7375   62.5976   33.7592 O   0  0  0  0  0  0  0  0  0  0  0  0
   28.2966   64.8577   35.8258 C   0  0  2  0  0  0  0  0  0  0  0  0
   28.9052   63.6984   36.2992 O   0  0  0  0  0  0  0  0  0  0  0  0
   28.0588   65.7916   36.9745 C   0  0  0  0  0  0  0  0  0  0  0  0
   28.2040   64.1459   32.9204 N   0  0  0  0  0  0  0  0  0  0  0  0
   28.4498   63.3155   31.7324 C   0  0  2  0  0  0  0  0  0  0  0  0
   29.4101   62.2494   32.0227 C   0  0  0  0  0  0  0  0  0  0  0  0
   30.3866   62.4975   32.8131 O   0  0  0  0  0  0  0  0  0  0  0  0
   28.9743   64.2393   30.6381 C   0  0  2  0  0  0  0  0  0  0  0  0
   28.3278   65.4617   30.7066 O   0  0  0  0  0  0  0  0  0  0  0  0
   28.8519   63.6366   29.2596 C   0  0  0  0  0  0  0  0  0  0  0  0
   29.2745   60.9658   31.4483 N   0  0  0  0  0  0  0  0  0  0  0  0
   30.1962   59.8954   31.8652 C   0  0  2  0  0  0  0  0  0  0  0  0
   31.2682   59.7865   30.8687 C   0  0  0  0  0  0  0  0  0  0  0  0
   32.1633   58.8908   31.0154 O   0  0  0  0  0  0  0  0  0  0  0  0
   29.3683   58.5778   31.8562 C   0  0  0  0  0  0  0  0  0  0  0  0
   31.3790   60.6252   29.7384 N   0  0  0  0  0  0  0  0  0  0  0  0
   32.3568   60.5110   28.6637 C   0  0  2  0  0  0  0  0  0  0  0  0
   33.5785   61.3286   29.0263 C   0  0  0  0  0  0  0  0  0  0  0  0
   33.5976   62.0103   30.0513 O   0  0  0  0  0  0  0  0  0  0  0  0
   31.6726   61.0173   27.4283 C   0  0  0  0  0  0  0  0  0  0  0  0
   30.3816   61.6045   27.8915 C   0  0  0  0  0  0  0  0  0  0  0  0
   30.4863   61.7220   29.4127 C   0  0  0  0  0  0  0  0  0  0  0  0
   34.7075   61.3106   28.1825 N   0  0  0  0  0  0  0  0  0  0  0  0
   35.8771   60.5293   28.2526 C   0  0  2  0  0  0  0  0  0  0  0  0
   36.9522   60.8357   27.3051 C   0  0  0  0  0  0  0  0  0  0  0  0
   37.5280   61.9698   27.4264 O   0  0  0  0  0  0  0  0  0  0  0  0
   35.7125   59.0404   28.3727 C   0  0  0  0  0  0  0  0  0  0  0  0
   36.6291   58.4107   29.1854 O   0  0  0  0  0  0  0  0  0  0  0  0
   37.4325   60.0126   26.2558 N   0  0  0  0  0  0  0  0  0  0  0  0
   38.6249   60.3527   25.5016 C   0  0  2  0  0  0  0  0  0  0  0  0
   38.1921   60.9038   24.1608 C   0  0  0  0  0  0  0  0  0  0  0  0
   37.0836   60.5649   23.7206 O   0  0  0  0  0  0  0  0  0  0  0  0
   39.4594   59.1422   25.2928 C   0  0  0  0  0  0  0  0  0  0  0  0
   39.7200   58.2480   26.4372 C   0  0  1  0  0  0  0  0  0  0  0  0
   40.6862   57.1262   26.1319 C   0  0  0  0  0  0  0  0  0  0  0  0
   40.1092   58.9090   27.7236 C   0  0  0  0  0  0  0  0  0  0  0  0
   39.0105   61.7893   23.4040 N   0  0  0  0  0  0  0  0  0  0  0  0
   39.0453   61.7435   21.9588 C   0  0  2  0  0  0  0  0  0  0  0  0
   39.2701   60.4044   21.4022 C   0  0  0  0  0  0  0  0  0  0  0  0
   40.2545   59.7231   21.8430 O   0  0  0  0  0  0  0  0  0  0  0  0
   40.2380   62.6005   21.4622 C   0  0  0  0  0  0  0  0  0  0  0  0
   40.2610   62.6467   20.0890 O   0  0  0  0  0  0  0  0  0  0  0  0
   38.4677   59.7987   20.4063 N   0  0  0  0  0  0  0  0  0  0  0  0
   37.9666   58.4635   20.5596 C   0  0  0  0  0  0  0  0  0  0  0  0
   37.4118   57.8751   19.3376 C   0  0  0  0  0  0  0  0  0  0  0  0
   36.4836   58.5374   18.7370 O   0  0  0  0  0  0  0  0  0  0  0  0
   37.8270   56.6451   18.7762 N   0  0  0  0  0  0  0  0  0  0  0  0
   36.8440   55.8965   17.9676 C   0  0  2  0  0  0  0  0  0  0  0  0
   36.9043   56.3305   16.5807 C   0  0  0  0  0  0  0  0  0  0  0  0
   37.2791   57.5025   16.2463 O   0  0  0  0  0  0  0  0  0  0  0  0
   35.5182   55.9076   18.6562 C   0  0  0  0  0  0  0  0  0  0  0  0
   35.0893   54.6585   19.3291 C   0  0  0  0  0  0  0  0  0  0  0  0
   33.7341   54.1459   19.0213 C   0  0  0  0  0  0  0  0  0  0  0  0
   33.4163   52.8714   19.7938 C   0  0  0  0  0  0  0  0  0  0  0  0
   31.9628   52.7000   19.8715 N   0  0  0  0  0  4  0  0  0  0  0  0
   36.5612   55.5049   15.5120 O   0  0  0  0  0  0  0  0  0  0  0  0
  2  1  1  1
  2  3  1  0
  2  5  1  0
  3  4  2  0
  3  8  1  0
  5  6  1  0
  5  7  1  1
  9  8  1  1
  9 10  1  0
  9 12  1  0
 10 11  2  0
 10 15  1  0
 12 13  1  0
 12 14  1  6
 15 16  1  0
 16 17  1  0
 16 19  1  6
 17 18  2  0
 17 20  1  0
 20 21  1  0
 20 26  1  0
 21 22  1  1
 21 24  1  0
 22 23  2  0
 22 27  1  0
 24 25  1  0
 25 26  1  0
 27 28  1  0
 28 29  1  0
 28 31  1  6
 29 30  2  0
 29 33  1  0
 31 32  1  0
 33 34  1  0
 34 35  1  0
 34 37  1  6
 35 36  2  0
 35 41  1  0
 37 38  1  0
 38 39  1  6
 38 40  1  0
 41 42  1  0
 42 43  1  0
 42 45  1  1
 43 44  2  0
 43 47  1  0
 45 46  1  0
 47 48  1  0
 48 49  1  0
 49 50  2  0
 49 51  1  0
 51 52  1  0
 52 53  1  0
 52 55  1  1
 53 54  2  0
 53 60  1  0
 55 56  1  0
 56 57  1  0
 57 58  1  0
 58 59  1  0
M  CHG  2   1   1  59   1
M  END
$$$$
