
     RDKit          3D

 60 60  0  0  0  0  0  0  0  0999 V2000
   26.6141   65.4584   36.1064 N   0  0  0  0  0  4  0  0  0  0  0  0
   26.7431   64.7153   34.8908 C   0  0  2  0  0  0  0  0  0  0  0  0
   27.8252   63.7260   34.8581 C   0  0  0  0  0  0  0  0  0  0  0  0
   29.0020   64.1685   34.9766 O   0  0  0  0  0  0  0  0  0  0  0  0
   26.9275   65.6618   33.7073 C   0  0  2  0  0  0  0  0  0  0  0  0
   28.2551   66.0806   33.7288 O   0  0  0  0  0  0  0  0  0  0  0  0
   26.0327   66.8602   33.8141 C   0  0  0  0  0  0  0  0  0  0  0  0
   27.6691   62.3243   34.7048 N   0  0  0  0  0  0  0  0  0  0  0  0
   28.6441   61.5449   33.9281 C   0  0  2  0  0  0  0  0  0  0  0  0
   29.6183   62.4198   33.2734 C   0  0  0  0  0  0  0  0  0  0  0  0
   29.3058   62.9643   32.1573 O   0  0  0  0  0  0  0  0  0  0  0  0
   27.8584   60.7373   32.9000 C   0  0  2  0  0  0  0  0  0  0  0  0
   28.2788   61.0684   31.6231 O   0  0  0  0  0  0  0  0  0  0  0  0
   26.3656   60.9096   33.0422 C   0  0  0  0  0  0  0  0  0  0  0  0
   30.8836   62.6676   33.8508 N   0  0  0  0  0  0  0  0  0  0  0  0
   32.0827   62.0918   33.2185 C   0  0  2  0  0  0  0  0  0  0  0  0
   31.9752   62.2666   31.7653 C   0  0  0  0  0  0  0  0  0  0  0  0
   30.8338   62.1528   31.2092 O   0  0  0  0  0  0  0  0  0  0  0  0
   32.0597   60.5700   33.5429 C   0  0  0  0  0  0  0  0  0  0  0  0
   33.0724   62.5547   30.9248 N   0  0  0  0  0  0  0  0  0  0  0  0
   33.0580   62.6227   29.4691 C   0  0  2  0  0  0  0  0  0  0  0  0
   33.3675   61.2489   28.9130 C   0  0  0  0  0  0  0  0  0  0  0  0
   34.4327   60.6898   29.1747 O   0  0  0  0  0  0  0  0  0  0  0  0
   34.0935   63.6412   29.0936 C   0  0  0  0  0  0  0  0  0  0  0  0
   34.8164   63.9691   30.3570 C   0  0  0  0  0  0  0  0  0  0  0  0
   34.4084   62.9014   31.3730 C   0  0  0  0  0  0  0  0  0  0  0  0
   32.4274   60.6012   28.0863 N   0  0  0  0  0  0  0  0  0  0  0  0
   32.5723   59.4614   27.2719 C   0  0  2  0  0  0  0  0  0  0  0  0
   33.7899   59.3592   26.4628 C   0  0  0  0  0  0  0  0  0  0  0  0
   34.8229   59.9805   26.8865 O   0  0  0  0  0  0  0  0  0  0  0  0
   31.3832   59.0315   26.4597 C   0  0  0  0  0  0  0  0  0  0  0  0
   30.1611   59.1946   27.0736 O   0  0  0  0  0  0  0  0  0  0  0  0
   33.9575   58.6455   25.2497 N   0  0  0  0  0  0  0  0  0  0  0  0
   35.1924   58.7081   24.4899 C   0  0  2  0  0  0  0  0  0  0  0  0
   35.0499   57.8038   23.2855 C   0  0  0  0  0  0  0  0  0  0  0  0
   33.9557   57.2522   23.0958 O   0  0  0  0  0  0  0  0  0  0  0  0
   36.3296   58.2444   25.3248 C   0  0  0  0  0  0  0  0  0  0  0  0
   36.0739   57.8452   26.7221 C   0  0  1  0  0  0  0  0  0  0  0  0
   36.7465   56.5525   27.1239 C   0  0  0  0  0  0  0  0  0  0  0  0
   36.3241   58.8872   27.7686 C   0  0  0  0  0  0  0  0  0  0  0  0
   36.1217   57.5748   22.3769 N   0  0  0  0  0  0  0  0  0  0  0  0
   36.0776   58.0550   21.0133 C   0  0  2  0  0  0  0  0  0  0  0  0
   36.6443   59.3957   20.8265 C   0  0  0  0  0  0  0  0  0  0  0  0
   36.6083   60.2102   21.8078 O   0  0  0  0  0  0  0  0  0  0  0  0
   34.5954   58.1704   20.5738 C   0  0  0  0  0  0  0  0  0  0  0  0
   34.2069   57.0471   19.8844 O   0  0  0  0  0  0  0  0  0  0  0  0
   37.2404   59.8609   19.6304 N   0  0  0  0  0  0  0  0  0  0  0  0
   37.4273   58.9951   18.5022 C   0  0  0  0  0  0  0  0  0  0  0  0
   38.8249   58.7974   18.1086 C   0  0  0  0  0  0  0  0  0  0  0  0
   39.7124   59.5002   18.7245 O   0  0  0  0  0  0  0  0  0  0  0  0
   39.2604   57.8921   17.1131 N   0  0  0  0  0  0  0  0  0  0  0  0
   40.6963   57.8940   16.7686 C   0  0  2  0  0  0  0  0  0  0  0  0
   41.1748   59.2606   16.6303 C   0  0  0  0  0  0  0  0  0  0  0  0
   40.7020   60.0664   15.7626 O   0  0  0  0  0  0  0  0  0  0  0  0
   40.9421   56.9404   15.6450 C   0  0  0  0  0  0  0  0  0  0  0  0
   40.4525   55.5513   15.8107 C   0  0  0  0  0  0  0  0  0  0  0  0
   41.0763   54.7279   16.8725 C   0  0  0  0  0  0  0  0  0  0  0  0
   40.8374   53.2387   16.6549 C   0  0  0  0  0  0  0  0  0  0  0  0
   42.0072   52.6501   15.9967 N   0  0  0  0  0  4  0  0  0  0  0  0
   42.1809   59.7966   17.4313 O   0  0  0  0  0  0  0  0  0  0  0  0
  2  1  1  1
  2  3  1  0
  2  5  1  0
  3  4  2  0
  3  8  1  0
  5  6  1  0
  5  7  1  1
  9  8  1  6
  9 10  1  0
  9 12  1  0
 10 11  2  0
 10 15  1  0
 12 13  1  0
 12 14  1  6
 15 16  1  0
 16 17  1  0
 16 19  1  6
 17 18  2  0
 17 20  1  0
 20 21  1  0
 20 26  1  0
 21 22  1  6
 21 24  1  0
 22 23  2  0
 22 27  1  0
 24 25  1  0
 25 26  1  0
 27 28  1  0
 28 29  1  0
 28 31  1  6
 29 30  2  0
 29 33  1  0
 31 32  1  0
 33 34  1  0
 34 35  1  0
 34 37  1  1
 35 36  2  0
 35 41  1  0
 37 38  1  0
 38 39  1  1
 38 40  1  0
 41 42  1  0
 42 43  1  0
 42 45  1  1
 43 44  2  0
 43 47  1  0
 45 46  1  0
 47 48  1  0
 48 49  1  0
 49 50  2  0
 49 51  1  0
 51 52  1  0
 52 53  1  0
 52 55  1  6
 53 54  2  0
 53 60  1  0
 55 56  1  0
 56 57  1  0
 57 58  1  0
 58 59  1  0
M  CHG  2   1   1  59   1
M  END
$$$$
