
     RDKit          3D

 60 60  0  0  0  0  0  0  0  0999 V2000
   24.7422   64.7176   34.7552 N   0  0  0  0  0  4  0  0  0  0  0  0
   25.9535   65.0931   34.0931 C   0  0  2  0  0  0  0  0  0  0  0  0
   26.8040   63.9873   33.6408 C   0  0  0  0  0  0  0  0  0  0  0  0
   26.6558   62.8802   34.2299 O   0  0  0  0  0  0  0  0  0  0  0  0
   26.7901   66.0004   34.9918 C   0  0  2  0  0  0  0  0  0  0  0  0
   27.5315   66.8272   34.1521 O   0  0  0  0  0  0  0  0  0  0  0  0
   27.7271   65.2102   35.8554 C   0  0  0  0  0  0  0  0  0  0  0  0
   27.7737   64.0502   32.6072 N   0  0  0  0  0  0  0  0  0  0  0  0
   28.6158   62.8845   32.3015 C   0  0  2  0  0  0  0  0  0  0  0  0
   29.9659   63.0520   32.8419 C   0  0  0  0  0  0  0  0  0  0  0  0
   30.3581   64.2265   33.1684 O   0  0  0  0  0  0  0  0  0  0  0  0
   28.6497   62.7393   30.7836 C   0  0  2  0  0  0  0  0  0  0  0  0
   29.9145   63.0458   30.3114 O   0  0  0  0  0  0  0  0  0  0  0  0
   27.5961   63.5730   30.0956 C   0  0  0  0  0  0  0  0  0  0  0  0
   30.8311   61.9472   33.0054 N   0  0  0  0  0  0  0  0  0  0  0  0
   32.2002   62.1783   33.4969 C   0  0  2  0  0  0  0  0  0  0  0  0
   33.0344   62.6136   32.3706 C   0  0  0  0  0  0  0  0  0  0  0  0
   32.6631   62.3421   31.1818 O   0  0  0  0  0  0  0  0  0  0  0  0
   32.7208   60.8019   34.0032 C   0  0  0  0  0  0  0  0  0  0  0  0
   34.2458   63.3237   32.5180 N   0  0  0  0  0  0  0  0  0  0  0  0
   35.1363   63.7551   31.4480 C   0  0  2  0  0  0  0  0  0  0  0  0
   36.1492   62.6609   31.1847 C   0  0  0  0  0  0  0  0  0  0  0  0
   36.9233   62.2946   32.0691 O   0  0  0  0  0  0  0  0  0  0  0  0
   35.7741   65.0249   31.9291 C   0  0  0  0  0  0  0  0  0  0  0  0
   35.3761   65.1614   33.3606 C   0  0  0  0  0  0  0  0  0  0  0  0
   34.7895   63.8104   33.7724 C   0  0  0  0  0  0  0  0  0  0  0  0
   36.2083   62.0538   29.9140 N   0  0  0  0  0  0  0  0  0  0  0  0
   36.0318   62.6145   28.6343 C   0  0  2  0  0  0  0  0  0  0  0  0
   36.3299   61.7656   27.4775 C   0  0  0  0  0  0  0  0  0  0  0  0
   37.3858   62.0397   26.8123 O   0  0  0  0  0  0  0  0  0  0  0  0
   36.5678   63.9991   28.4019 C   0  0  0  0  0  0  0  0  0  0  0  0
   35.6265   65.0045   28.4148 O   0  0  0  0  0  0  0  0  0  0  0  0
   35.5741   60.6644   27.0030 N   0  0  0  0  0  0  0  0  0  0  0  0
   36.1869   59.3779   26.7278 C   0  0  2  0  0  0  0  0  0  0  0  0
   36.7717   59.4242   25.3334 C   0  0  0  0  0  0  0  0  0  0  0  0
   36.1354   60.0220   24.4529 O   0  0  0  0  0  0  0  0  0  0  0  0
   35.1673   58.3007   26.8011 C   0  0  0  0  0  0  0  0  0  0  0  0
   34.6203   57.9232   28.1184 C   0  0  1  0  0  0  0  0  0  0  0  0
   35.4477   58.4061   29.2877 C   0  0  0  0  0  0  0  0  0  0  0  0
   33.1774   58.2462   28.3576 C   0  0  0  0  0  0  0  0  0  0  0  0
   38.0153   58.8108   25.0109 N   0  0  0  0  0  0  0  0  0  0  0  0
   38.3310   58.3966   23.6615 C   0  0  2  0  0  0  0  0  0  0  0  0
   37.4654   57.3334   23.1380 C   0  0  0  0  0  0  0  0  0  0  0  0
   36.6776   56.7407   23.9476 O   0  0  0  0  0  0  0  0  0  0  0  0
   39.7641   57.8054   23.6447 C   0  0  0  0  0  0  0  0  0  0  0  0
   39.8850   56.8049   24.5788 O   0  0  0  0  0  0  0  0  0  0  0  0
   37.4309   56.9120   21.7876 N   0  0  0  0  0  0  0  0  0  0  0  0
   37.4800   57.8555   20.7083 C   0  0  0  0  0  0  0  0  0  0  0  0
   37.1454   57.2991   19.3947 C   0  0  0  0  0  0  0  0  0  0  0  0
   37.0584   58.1281   18.4117 O   0  0  0  0  0  0  0  0  0  0  0  0
   36.9200   55.9271   19.1353 N   0  0  0  0  0  0  0  0  0  0  0  0
   36.7267   55.5202   17.7291 C   0  0  2  0  0  0  0  0  0  0  0  0
   37.6594   56.2328   16.8702 C   0  0  0  0  0  0  0  0  0  0  0  0
   37.9686   55.8192   15.7043 O   0  0  0  0  0  0  0  0  0  0  0  0
   35.2724   55.5693   17.3899 C   0  0  0  0  0  0  0  0  0  0  0  0
   34.3376   54.8568   18.2929 C   0  0  0  0  0  0  0  0  0  0  0  0
   33.1383   54.2358   17.6846 C   0  0  0  0  0  0  0  0  0  0  0  0
   32.3599   55.2216   16.8218 C   0  0  0  0  0  0  0  0  0  0  0  0
   31.1685   55.6684   17.5491 N   0  0  0  0  0  4  0  0  0  0  0  0
   38.2852   57.4186   17.2492 O   0  0  0  0  0  0  0  0  0  0  0  0
  2  1  1  1
  2  3  1  0
  2  5  1  0
  3  4  2  0
  3  8  1  0
  5  6  1  0
  5  7  1  6
  9  8  1  6
  9 10  1  0
  9 12  1  0
 10 11  2  0
 10 15  1  0
 12 13  1  0
 12 14  1  6
 15 16  1  0
 16 17  1  0
 16 19  1  6
 17 18  2  0
 17 20  1  0
 20 21  1  0
 20 26  1  0
 21 22  1  1
 21 24  1  0
 22 23  2  0
 22 27  1  0
 24 25  1  0
 25 26  1  0
 27 28  1  0
 28 29  1  0
 28 31  1  1
 29 30  2  0
 29 33  1  0
 31 32  1  0
 33 34  1  0
 34 35  1  0
 34 37  1  6
 35 36  2  0
 35 41  1  0
 37 38  1  0
 38 39  1  1
 38 40  1  0
 41 42  1  0
 42 43  1  0
 42 45  1  1
 43 44  2  0
 43 47  1  0
 45 46  1  0
 47 48  1  0
 48 49  1  0
 49 50  2  0
 49 51  1  0
 51 52  1  0
 52 53  1  0
 52 55  1  6
 53 54  2  0
 53 60  1  0
 55 56  1  0
 56 57  1  0
 57 58  1  0
 58 59  1  0
M  CHG  2   1   1  59   1
M  END
$$$$
