
     RDKit          3D

 60 60  0  0  0  0  0  0  0  0999 V2000
   26.2093   65.7424   37.1554 N   0  0  0  0  0  4  0  0  0  0  0  0
   25.6253   64.4496   36.9702 C   0  0  2  0  0  0  0  0  0  0  0  0
   26.5636   63.3591   36.6854 C   0  0  0  0  0  0  0  0  0  0  0  0
   26.1051   62.1843   36.7528 O   0  0  0  0  0  0  0  0  0  0  0  0
   24.5893   64.4911   35.8496 C   0  0  2  0  0  0  0  0  0  0  0  0
   24.9248   63.4806   34.9525 O   0  0  0  0  0  0  0  0  0  0  0  0
   24.6030   65.8083   35.1333 C   0  0  0  0  0  0  0  0  0  0  0  0
   27.9329   63.5051   36.3442 N   0  0  0  0  0  0  0  0  0  0  0  0
   28.6262   62.4611   35.5756 C   0  0  2  0  0  0  0  0  0  0  0  0
   29.1391   62.9894   34.3104 C   0  0  0  0  0  0  0  0  0  0  0  0
   28.3294   63.5859   33.5177 O   0  0  0  0  0  0  0  0  0  0  0  0
   27.6216   61.3397   35.3315 C   0  0  2  0  0  0  0  0  0  0  0  0
   27.2758   60.7498   36.5353 O   0  0  0  0  0  0  0  0  0  0  0  0
   28.1249   60.3116   34.3475 C   0  0  0  0  0  0  0  0  0  0  0  0
   30.5000   62.8508   33.9575 N   0  0  0  0  0  0  0  0  0  0  0  0
   30.9501   63.3368   32.6420 C   0  0  2  0  0  0  0  0  0  0  0  0
   31.2610   62.1782   31.7964 C   0  0  0  0  0  0  0  0  0  0  0  0
   31.7399   61.1270   32.3355 O   0  0  0  0  0  0  0  0  0  0  0  0
   32.2603   64.1369   32.8966 C   0  0  0  0  0  0  0  0  0  0  0  0
   31.0648   62.1500   30.3985 N   0  0  0  0  0  0  0  0  0  0  0  0
   31.3935   61.0534   29.4966 C   0  0  2  0  0  0  0  0  0  0  0  0
   32.8118   61.2385   28.9996 C   0  0  0  0  0  0  0  0  0  0  0  0
   33.1157   62.2154   28.3148 O   0  0  0  0  0  0  0  0  0  0  0  0
   30.3840   61.1141   28.3886 C   0  0  0  0  0  0  0  0  0  0  0  0
   29.6340   62.3877   28.5927 C   0  0  0  0  0  0  0  0  0  0  0  0
   30.4338   63.1961   29.6153 C   0  0  0  0  0  0  0  0  0  0  0  0
   33.7963   60.2831   29.3232 N   0  0  0  0  0  0  0  0  0  0  0  0
   35.1084   60.1346   28.8337 C   0  0  2  0  0  0  0  0  0  0  0  0
   35.2971   60.1807   27.3811 C   0  0  0  0  0  0  0  0  0  0  0  0
   34.2707   60.4522   26.6702 O   0  0  0  0  0  0  0  0  0  0  0  0
   35.9501   59.0376   29.4223 C   0  0  0  0  0  0  0  0  0  0  0  0
   35.3118   58.2351   30.3419 O   0  0  0  0  0  0  0  0  0  0  0  0
   36.4984   59.9546   26.6636 N   0  0  0  0  0  0  0  0  0  0  0  0
   36.6881   60.4522   25.3135 C   0  0  2  0  0  0  0  0  0  0  0  0
   36.8561   59.2632   24.3934 C   0  0  0  0  0  0  0  0  0  0  0  0
   37.8310   58.5186   24.5736 O   0  0  0  0  0  0  0  0  0  0  0  0
   37.9035   61.3032   25.2492 C   0  0  0  0  0  0  0  0  0  0  0  0
   37.7755   62.7517   25.4992 C   0  0  1  0  0  0  0  0  0  0  0  0
   36.4785   63.1467   26.1676 C   0  0  0  0  0  0  0  0  0  0  0  0
   38.9228   63.4099   26.2020 C   0  0  0  0  0  0  0  0  0  0  0  0
   35.9372   58.9799   23.3435 N   0  0  0  0  0  0  0  0  0  0  0  0
   36.2356   58.0087   22.3141 C   0  0  2  0  0  0  0  0  0  0  0  0
   37.6208   58.0468   21.8311 C   0  0  0  0  0  0  0  0  0  0  0  0
   38.0642   59.1419   21.3497 O   0  0  0  0  0  0  0  0  0  0  0  0
   35.3589   58.3141   21.0724 C   0  0  0  0  0  0  0  0  0  0  0  0
   35.7139   57.5055   20.0197 O   0  0  0  0  0  0  0  0  0  0  0  0
   38.5173   56.9523   21.8625 N   0  0  0  0  0  0  0  0  0  0  0  0
   39.7411   56.9664   21.1145 C   0  0  0  0  0  0  0  0  0  0  0  0
   39.5894   56.6636   19.6888 C   0  0  0  0  0  0  0  0  0  0  0  0
   40.6587   56.3584   19.0373 O   0  0  0  0  0  0  0  0  0  0  0  0
   38.3603   56.6778   18.9893 N   0  0  0  0  0  0  0  0  0  0  0  0
   38.3786   56.2806   17.5672 C   0  0  2  0  0  0  0  0  0  0  0  0
   38.2854   57.4581   16.7186 C   0  0  0  0  0  0  0  0  0  0  0  0
   38.4313   57.4026   15.4531 O   0  0  0  0  0  0  0  0  0  0  0  0
   37.4050   55.1692   17.3460 C   0  0  0  0  0  0  0  0  0  0  0  0
   36.1177   55.5104   16.6952 C   0  0  0  0  0  0  0  0  0  0  0  0
   35.1220   54.4251   16.5371 C   0  0  0  0  0  0  0  0  0  0  0  0
   33.9109   54.8744   15.7287 C   0  0  0  0  0  0  0  0  0  0  0  0
   34.0113   54.3423   14.3667 N   0  0  0  0  0  4  0  0  0  0  0  0
   38.0288   58.7337   17.2168 O   0  0  0  0  0  0  0  0  0  0  0  0
  2  1  1  6
  2  3  1  0
  2  5  1  0
  3  4  2  0
  3  8  1  0
  5  6  1  0
  5  7  1  6
  9  8  1  6
  9 10  1  0
  9 12  1  0
 10 11  2  0
 10 15  1  0
 12 13  1  0
 12 14  1  6
 15 16  1  0
 16 17  1  0
 16 19  1  1
 17 18  2  0
 17 20  1  0
 20 21  1  0
 20 26  1  0
 21 22  1  6
 21 24  1  0
 22 23  2  0
 22 27  1  0
 24 25  1  0
 25 26  1  0
 27 28  1  0
 28 29  1  0
 28 31  1  6
 29 30  2  0
 29 33  1  0
 31 32  1  0
 33 34  1  0
 34 35  1  0
 34 37  1  1
 35 36  2  0
 35 41  1  0
 37 38  1  0
 38 39  1  1
 38 40  1  0
 41 42  1  0
 42 43  1  0
 42 45  1  6
 43 44  2  0
 43 47  1  0
 45 46  1  0
 47 48  1  0
 48 49  1  0
 49 50  2  0
 49 51  1  0
 51 52  1  0
 52 53  1  0
 52 55  1  1
 53 54  2  0
 53 60  1  0
 55 56  1  0
 56 57  1  0
 57 58  1  0
 58 59  1  0
M  CHG  2   1   1  59   1
M  END
$$$$
