
     RDKit          3D

 60 60  0  0  0  0  0  0  0  0999 V2000
   26.0982   64.3226   37.3498 N   0  0  0  0  0  4  0  0  0  0  0  0
   26.1067   64.2122   35.9235 C   0  0  2  0  0  0  0  0  0  0  0  0
   27.1070   63.3005   35.3588 C   0  0  0  0  0  0  0  0  0  0  0  0
   28.1532   63.1137   36.0409 O   0  0  0  0  0  0  0  0  0  0  0  0
   26.3007   65.5858   35.2862 C   0  0  2  0  0  0  0  0  0  0  0  0
   26.1643   65.4154   33.9111 O   0  0  0  0  0  0  0  0  0  0  0  0
   27.6614   66.1433   35.5793 C   0  0  0  0  0  0  0  0  0  0  0  0
   27.0055   62.6146   34.1211 N   0  0  0  0  0  0  0  0  0  0  0  0
   28.0164   61.6200   33.7336 C   0  0  2  0  0  0  0  0  0  0  0  0
   29.2504   62.2680   33.2860 C   0  0  0  0  0  0  0  0  0  0  0  0
   29.1713   63.3937   32.6808 O   0  0  0  0  0  0  0  0  0  0  0  0
   27.4103   60.7724   32.6199 C   0  0  2  0  0  0  0  0  0  0  0  0
   28.3885   59.9725   32.0541 O   0  0  0  0  0  0  0  0  0  0  0  0
   26.7135   61.6033   31.5698 C   0  0  0  0  0  0  0  0  0  0  0  0
   30.5122   61.6737   33.5107 N   0  0  0  0  0  0  0  0  0  0  0  0
   31.7101   62.2953   32.9209 C   0  0  2  0  0  0  0  0  0  0  0  0
   31.4647   62.5209   31.4917 C   0  0  0  0  0  0  0  0  0  0  0  0
   31.1412   63.6881   31.0941 O   0  0  0  0  0  0  0  0  0  0  0  0
   32.8607   61.2587   33.0740 C   0  0  0  0  0  0  0  0  0  0  0  0
   31.5613   61.5122   30.5086 N   0  0  0  0  0  0  0  0  0  0  0  0
   32.6162   60.5140   30.3881 C   0  0  2  0  0  0  0  0  0  0  0  0
   33.7158   61.0695   29.5077 C   0  0  0  0  0  0  0  0  0  0  0  0
   33.5062   62.0355   28.7739 O   0  0  0  0  0  0  0  0  0  0  0  0
   31.9671   59.2972   29.7977 C   0  0  0  0  0  0  0  0  0  0  0  0
   30.5920   59.7219   29.4040 C   0  0  0  0  0  0  0  0  0  0  0  0
   30.5801   61.2497   29.4720 C   0  0  0  0  0  0  0  0  0  0  0  0
   34.9939   60.4756   29.5268 N   0  0  0  0  0  0  0  0  0  0  0  0
   35.5987   59.6000   28.6044 C   0  0  2  0  0  0  0  0  0  0  0  0
   35.1718   59.6920   27.2054 C   0  0  0  0  0  0  0  0  0  0  0  0
   34.2848   58.8605   26.8128 O   0  0  0  0  0  0  0  0  0  0  0  0
   35.7351   58.1572   29.0017 C   0  0  0  0  0  0  0  0  0  0  0  0
   36.3203   57.3401   28.0599 O   0  0  0  0  0  0  0  0  0  0  0  0
   35.6348   60.6046   26.2246 N   0  0  0  0  0  0  0  0  0  0  0  0
   35.2963   60.4558   24.8211 C   0  0  2  0  0  0  0  0  0  0  0  0
   35.8111   59.1125   24.3530 C   0  0  0  0  0  0  0  0  0  0  0  0
   35.2442   58.0920   24.7711 O   0  0  0  0  0  0  0  0  0  0  0  0
   35.9342   61.5349   24.0250 C   0  0  0  0  0  0  0  0  0  0  0  0
   36.0276   62.8893   24.6029 C   0  0  1  0  0  0  0  0  0  0  0  0
   36.3565   62.9056   26.0783 C   0  0  0  0  0  0  0  0  0  0  0  0
   36.9096   63.8616   23.8817 C   0  0  0  0  0  0  0  0  0  0  0  0
   36.9109   58.9911   23.4572 N   0  0  0  0  0  0  0  0  0  0  0  0
   36.7713   58.3586   22.1640 C   0  0  2  0  0  0  0  0  0  0  0  0
   37.5176   59.0174   21.0858 C   0  0  0  0  0  0  0  0  0  0  0  0
   37.0746   60.1242   20.6316 O   0  0  0  0  0  0  0  0  0  0  0  0
   35.2831   58.4263   21.7347 C   0  0  0  0  0  0  0  0  0  0  0  0
   34.6498   57.2356   21.9977 O   0  0  0  0  0  0  0  0  0  0  0  0
   38.7083   58.5186   20.5062 N   0  0  0  0  0  0  0  0  0  0  0  0
   39.2481   59.0834   19.3033 C   0  0  0  0  0  0  0  0  0  0  0  0
   39.3001   58.1617   18.1653 C   0  0  0  0  0  0  0  0  0  0  0  0
   38.2007   57.5760   17.8345 O   0  0  0  0  0  0  0  0  0  0  0  0
   40.4623   57.8798   17.4102 N   0  0  0  0  0  0  0  0  0  0  0  0
   40.3479   56.8842   16.3257 C   0  0  2  0  0  0  0  0  0  0  0  0
   39.5735   57.4329   15.2237 C   0  0  0  0  0  0  0  0  0  0  0  0
   39.1114   58.6213   15.2373 O   0  0  0  0  0  0  0  0  0  0  0  0
   39.9320   55.5679   16.8973 C   0  0  0  0  0  0  0  0  0  0  0  0
   38.5372   55.4464   17.3839 C   0  0  0  0  0  0  0  0  0  0  0  0
   38.1310   54.1532   17.9813 C   0  0  0  0  0  0  0  0  0  0  0  0
   37.9354   54.2567   19.4890 C   0  0  0  0  0  0  0  0  0  0  0  0
   36.5147   54.4670   19.7813 N   0  0  0  0  0  4  0  0  0  0  0  0
   39.2775   56.7094   14.0703 O   0  0  0  0  0  0  0  0  0  0  0  0
  2  1  1  1
  2  3  1  0
  2  5  1  0
  3  4  2  0
  3  8  1  0
  5  6  1  0
  5  7  1  6
  9  8  1  6
  9 10  1  0
  9 12  1  0
 10 11  2  0
 10 15  1  0
 12 13  1  0
 12 14  1  6
 15 16  1  0
 16 17  1  0
 16 19  1  6
 17 18  2  0
 17 20  1  0
 20 21  1  0
 20 26  1  0
 21 22  1  6
 21 24  1  0
 22 23  2  0
 22 27  1  0
 24 25  1  0
 25 26  1  0
 27 28  1  0
 28 29  1  0
 28 31  1  1
 29 30  2  0
 29 33  1  0
 31 32  1  0
 33 34  1  0
 34 35  1  0
 34 37  1  6
 35 36  2  0
 35 41  1  0
 37 38  1  0
 38 39  1  1
 38 40  1  0
 41 42  1  0
 42 43  1  0
 42 45  1  6
 43 44  2  0
 43 47  1  0
 45 46  1  0
 47 48  1  0
 48 49  1  0
 49 50  2  0
 49 51  1  0
 51 52  1  0
 52 53  1  0
 52 55  1  1
 53 54  2  0
 53 60  1  0
 55 56  1  0
 56 57  1  0
 57 58  1  0
 58 59  1  0
M  CHG  2   1   1  59   1
M  END
$$$$
