
     RDKit          3D

 60 60  0  0  0  0  0  0  0  0999 V2000
   24.4091   64.9863   35.4596 N   0  0  0  0  0  4  0  0  0  0  0  0
   25.8226   64.8130   35.3234 C   0  0  2  0  0  0  0  0  0  0  0  0
   26.2613   64.0207   34.1698 C   0  0  0  0  0  0  0  0  0  0  0  0
   25.3555   63.5678   33.4154 O   0  0  0  0  0  0  0  0  0  0  0  0
   26.4034   64.1791   36.5849 C   0  0  2  0  0  0  0  0  0  0  0  0
   27.4843   64.9670   36.9713 O   0  0  0  0  0  0  0  0  0  0  0  0
   26.8809   62.7807   36.3307 C   0  0  0  0  0  0  0  0  0  0  0  0
   27.6047   63.7183   33.8284 N   0  0  0  0  0  0  0  0  0  0  0  0
   27.9986   63.5541   32.4216 C   0  0  2  0  0  0  0  0  0  0  0  0
   29.2604   62.8205   32.3086 C   0  0  0  0  0  0  0  0  0  0  0  0
   30.3080   63.3069   32.8615 O   0  0  0  0  0  0  0  0  0  0  0  0
   28.1243   64.9514   31.8233 C   0  0  2  0  0  0  0  0  0  0  0  0
   28.2764   64.8615   30.4501 O   0  0  0  0  0  0  0  0  0  0  0  0
   29.2446   65.7511   32.4427 C   0  0  0  0  0  0  0  0  0  0  0  0
   29.3355   61.5975   31.6055 N   0  0  0  0  0  0  0  0  0  0  0  0
   30.1522   61.5258   30.3819 C   0  0  2  0  0  0  0  0  0  0  0  0
   31.4434   62.1731   30.6424 C   0  0  0  0  0  0  0  0  0  0  0  0
   31.4996   63.4453   30.6996 O   0  0  0  0  0  0  0  0  0  0  0  0
   29.3907   62.3448   29.2997 C   0  0  0  0  0  0  0  0  0  0  0  0
   32.6516   61.4682   30.8344 N   0  0  0  0  0  0  0  0  0  0  0  0
   33.7523   61.8520   31.7090 C   0  0  2  0  0  0  0  0  0  0  0  0
   34.7201   62.7142   30.9264 C   0  0  0  0  0  0  0  0  0  0  0  0
   34.7706   63.9303   31.1118 O   0  0  0  0  0  0  0  0  0  0  0  0
   34.3742   60.5692   32.1763 C   0  0  0  0  0  0  0  0  0  0  0  0
   33.7275   59.4896   31.3748 C   0  0  0  0  0  0  0  0  0  0  0  0
   32.9846   60.1890   30.2356 C   0  0  0  0  0  0  0  0  0  0  0  0
   35.5734   62.1204   29.9745 N   0  0  0  0  0  0  0  0  0  0  0  0
   36.8816   62.4709   29.5888 C   0  0  2  0  0  0  0  0  0  0  0  0
   37.5415   61.6247   28.5907 C   0  0  0  0  0  0  0  0  0  0  0  0
   38.8144   61.5342   28.6559 O   0  0  0  0  0  0  0  0  0  0  0  0
   37.8547   62.8294   30.6765 C   0  0  0  0  0  0  0  0  0  0  0  0
   38.2565   64.1466   30.6959 O   0  0  0  0  0  0  0  0  0  0  0  0
   36.9264   60.8880   27.5477 N   0  0  0  0  0  0  0  0  0  0  0  0
   37.6517   59.8865   26.7879 C   0  0  2  0  0  0  0  0  0  0  0  0
   38.0084   60.4827   25.4441 C   0  0  0  0  0  0  0  0  0  0  0  0
   37.2757   61.3727   24.9872 O   0  0  0  0  0  0  0  0  0  0  0  0
   36.8027   58.6848   26.5863 C   0  0  0  0  0  0  0  0  0  0  0  0
   37.3996   57.3486   26.7744 C   0  0  1  0  0  0  0  0  0  0  0  0
   36.8720   56.6051   27.9802 C   0  0  0  0  0  0  0  0  0  0  0  0
   37.3908   56.4417   25.5824 C   0  0  0  0  0  0  0  0  0  0  0  0
   39.1468   60.0572   24.7027 N   0  0  0  0  0  0  0  0  0  0  0  0
   39.4074   60.5424   23.3653 C   0  0  2  0  0  0  0  0  0  0  0  0
   38.4133   60.1285   22.3683 C   0  0  0  0  0  0  0  0  0  0  0  0
   37.4512   59.3813   22.7468 O   0  0  0  0  0  0  0  0  0  0  0  0
   40.7533   59.9497   22.8743 C   0  0  0  0  0  0  0  0  0  0  0  0
   41.0458   60.3986   21.6089 O   0  0  0  0  0  0  0  0  0  0  0  0
   38.4346   60.5023   21.0036 N   0  0  0  0  0  0  0  0  0  0  0  0
   37.4093   60.0761   20.0955 C   0  0  0  0  0  0  0  0  0  0  0  0
   37.6261   58.7517   19.5072 C   0  0  0  0  0  0  0  0  0  0  0  0
   38.5983   58.0513   19.9819 O   0  0  0  0  0  0  0  0  0  0  0  0
   36.8441   58.1944   18.4687 N   0  0  0  0  0  0  0  0  0  0  0  0
   37.1007   56.7879   18.0995 C   0  0  2  0  0  0  0  0  0  0  0  0
   38.0055   56.7273   16.9623 C   0  0  0  0  0  0  0  0  0  0  0  0
   38.9067   55.8319   16.8522 O   0  0  0  0  0  0  0  0  0  0  0  0
   35.8048   56.0492   18.0137 C   0  0  0  0  0  0  0  0  0  0  0  0
   35.3984   55.5383   16.6831 C   0  0  0  0  0  0  0  0  0  0  0  0
   34.1892   54.6853   16.6176 C   0  0  0  0  0  0  0  0  0  0  0  0
   33.8981   54.2148   15.1977 C   0  0  0  0  0  0  0  0  0  0  0  0
   32.4825   54.4398   14.8920 N   0  0  0  0  0  4  0  0  0  0  0  0
   37.9595   57.6360   15.9072 O   0  0  0  0  0  0  0  0  0  0  0  0
  2  1  1  1
  2  3  1  0
  2  5  1  0
  3  4  2  0
  3  8  1  0
  5  6  1  0
  5  7  1  6
  9  8  1  1
  9 10  1  0
  9 12  1  0
 10 11  2  0
 10 15  1  0
 12 13  1  0
 12 14  1  1
 15 16  1  0
 16 17  1  0
 16 19  1  6
 17 18  2  0
 17 20  1  0
 20 21  1  0
 20 26  1  0
 21 22  1  6
 21 24  1  0
 22 23  2  0
 22 27  1  0
 24 25  1  0
 25 26  1  0
 27 28  1  0
 28 29  1  0
 28 31  1  1
 29 30  2  0
 29 33  1  0
 31 32  1  0
 33 34  1  0
 34 35  1  0
 34 37  1  6
 35 36  2  0
 35 41  1  0
 37 38  1  0
 38 39  1  1
 38 40  1  0
 41 42  1  0
 42 43  1  0
 42 45  1  6
 43 44  2  0
 43 47  1  0
 45 46  1  0
 47 48  1  0
 48 49  1  0
 49 50  2  0
 49 51  1  0
 51 52  1  0
 52 53  1  0
 52 55  1  6
 53 54  2  0
 53 60  1  0
 55 56  1  0
 56 57  1  0
 57 58  1  0
 58 59  1  0
M  CHG  2   1   1  59   1
M  END
$$$$
