
     RDKit          3D

 60 60  0  0  0  0  0  0  0  0999 V2000
   24.8331   65.1099   36.3103 N   0  0  0  0  0  4  0  0  0  0  0  0
   25.5861   64.0596   35.6967 C   0  0  2  0  0  0  0  0  0  0  0  0
   26.9360   64.4180   35.2493 C   0  0  0  0  0  0  0  0  0  0  0  0
   27.4531   65.4445   35.7727 O   0  0  0  0  0  0  0  0  0  0  0  0
   24.8248   63.4887   34.5029 C   0  0  2  0  0  0  0  0  0  0  0  0
   23.5225   63.2482   34.9325 O   0  0  0  0  0  0  0  0  0  0  0  0
   25.4300   62.2025   34.0258 C   0  0  0  0  0  0  0  0  0  0  0  0
   27.7080   63.7193   34.2858 N   0  0  0  0  0  0  0  0  0  0  0  0
   29.1702   63.6391   34.4162 C   0  0  2  0  0  0  0  0  0  0  0  0
   29.7558   62.8589   33.3248 C   0  0  0  0  0  0  0  0  0  0  0  0
   28.9739   62.2693   32.4996 O   0  0  0  0  0  0  0  0  0  0  0  0
   29.4671   62.9961   35.7670 C   0  0  2  0  0  0  0  0  0  0  0  0
   30.1267   61.7935   35.5790 O   0  0  0  0  0  0  0  0  0  0  0  0
   28.2274   62.8101   36.6080 C   0  0  0  0  0  0  0  0  0  0  0  0
   31.1560   62.7496   33.1726 N   0  0  0  0  0  0  0  0  0  0  0  0
   31.8601   63.7217   32.3190 C   0  0  2  0  0  0  0  0  0  0  0  0
   32.4154   63.0117   31.1608 C   0  0  0  0  0  0  0  0  0  0  0  0
   33.0628   63.6694   30.2815 O   0  0  0  0  0  0  0  0  0  0  0  0
   33.0341   64.2828   33.1726 C   0  0  0  0  0  0  0  0  0  0  0  0
   32.2754   61.6229   30.9489 N   0  0  0  0  0  0  0  0  0  0  0  0
   32.8921   60.5579   31.7296 C   0  0  2  0  0  0  0  0  0  0  0  0
   34.2354   60.2196   31.1183 C   0  0  0  0  0  0  0  0  0  0  0  0
   35.2088   59.9792   31.8327 O   0  0  0  0  0  0  0  0  0  0  0  0
   31.9334   59.4049   31.6840 C   0  0  0  0  0  0  0  0  0  0  0  0
   30.8864   59.7872   30.6920 C   0  0  0  0  0  0  0  0  0  0  0  0
   31.4302   61.0052   29.9439 C   0  0  0  0  0  0  0  0  0  0  0  0
   34.3753   60.1789   29.7163 N   0  0  0  0  0  0  0  0  0  0  0  0
   35.5213   59.9609   28.9274 C   0  0  2  0  0  0  0  0  0  0  0  0
   35.3551   59.9899   27.4716 C   0  0  0  0  0  0  0  0  0  0  0  0
   34.5380   59.1495   26.9632 O   0  0  0  0  0  0  0  0  0  0  0  0
   36.4262   58.8252   29.3144 C   0  0  0  0  0  0  0  0  0  0  0  0
   36.7275   58.7437   30.6559 O   0  0  0  0  0  0  0  0  0  0  0  0
   36.0039   60.8497   26.5502 N   0  0  0  0  0  0  0  0  0  0  0  0
   35.5084   61.0363   25.1989 C   0  0  2  0  0  0  0  0  0  0  0  0
   35.8524   59.8005   24.3970 C   0  0  0  0  0  0  0  0  0  0  0  0
   35.8498   58.7064   24.9805 O   0  0  0  0  0  0  0  0  0  0  0  0
   36.1509   62.2230   24.5790 C   0  0  0  0  0  0  0  0  0  0  0  0
   35.8425   63.5633   25.1135 C   0  0  1  0  0  0  0  0  0  0  0  0
   36.4979   64.6931   24.3526 C   0  0  0  0  0  0  0  0  0  0  0  0
   34.3938   63.8772   25.3283 C   0  0  0  0  0  0  0  0  0  0  0  0
   36.1720   59.8594   23.0110 N   0  0  0  0  0  0  0  0  0  0  0  0
   36.5190   58.6729   22.2601 C   0  0  2  0  0  0  0  0  0  0  0  0
   36.7218   58.9041   20.8252 C   0  0  0  0  0  0  0  0  0  0  0  0
   35.9400   59.7149   20.2262 O   0  0  0  0  0  0  0  0  0  0  0  0
   35.3449   57.6646   22.3520 C   0  0  0  0  0  0  0  0  0  0  0  0
   35.5627   56.7603   23.3635 O   0  0  0  0  0  0  0  0  0  0  0  0
   37.7327   58.2952   20.0442 N   0  0  0  0  0  0  0  0  0  0  0  0
   38.0324   58.7547   18.7189 C   0  0  0  0  0  0  0  0  0  0  0  0
   38.6796   57.7602   17.8591 C   0  0  0  0  0  0  0  0  0  0  0  0
   39.4576   58.2038   16.9324 O   0  0  0  0  0  0  0  0  0  0  0  0
   38.5139   56.3609   17.9812 N   0  0  0  0  0  0  0  0  0  0  0  0
   39.0805   55.5100   16.9155 C   0  0  2  0  0  0  0  0  0  0  0  0
   38.0113   54.9320   16.1167 C   0  0  0  0  0  0  0  0  0  0  0  0
   36.7789   55.1264   16.3800 O   0  0  0  0  0  0  0  0  0  0  0  0
   40.1037   54.5917   17.5001 C   0  0  0  0  0  0  0  0  0  0  0  0
   41.1466   55.1947   18.3637 C   0  0  0  0  0  0  0  0  0  0  0  0
   42.1720   54.2895   18.9322 C   0  0  0  0  0  0  0  0  0  0  0  0
   42.7861   54.8518   20.2085 C   0  0  0  0  0  0  0  0  0  0  0  0
   41.7520   55.5474   20.9797 N   0  0  0  0  0  4  0  0  0  0  0  0
   38.2460   54.1257   15.0050 O   0  0  0  0  0  0  0  0  0  0  0  0
  2  1  1  6
  2  3  1  0
  2  5  1  0
  3  4  2  0
  3  8  1  0
  5  6  1  0
  5  7  1  1
  9  8  1  6
  9 10  1  0
  9 12  1  0
 10 11  2  0
 10 15  1  0
 12 13  1  0
 12 14  1  6
 15 16  1  0
 16 17  1  0
 16 19  1  1
 17 18  2  0
 17 20  1  0
 20 21  1  0
 20 26  1  0
 21 22  1  6
 21 24  1  0
 22 23  2  0
 22 27  1  0
 24 25  1  0
 25 26  1  0
 27 28  1  0
 28 29  1  0
 28 31  1  1
 29 30  2  0
 29 33  1  0
 31 32  1  0
 33 34  1  0
 34 35  1  0
 34 37  1  6
 35 36  2  0
 35 41  1  0
 37 38  1  0
 38 39  1  6
 38 40  1  0
 41 42  1  0
 42 43  1  0
 42 45  1  6
 43 44  2  0
 43 47  1  0
 45 46  1  0
 47 48  1  0
 48 49  1  0
 49 50  2  0
 49 51  1  0
 51 52  1  0
 52 53  1  0
 52 55  1  1
 53 54  2  0
 53 60  1  0
 55 56  1  0
 56 57  1  0
 57 58  1  0
 58 59  1  0
M  CHG  2   1   1  59   1
M  END
$$$$
