
     RDKit          3D

 60 60  0  0  0  0  0  0  0  0999 V2000
   24.2819   63.2172   36.0650 N   0  0  0  0  0  4  0  0  0  0  0  0
   25.4982   63.8850   35.7164 C   0  0  2  0  0  0  0  0  0  0  0  0
   26.0716   63.5303   34.4141 C   0  0  0  0  0  0  0  0  0  0  0  0
   25.6827   62.4444   33.8999 O   0  0  0  0  0  0  0  0  0  0  0  0
   26.5607   63.6446   36.7859 C   0  0  2  0  0  0  0  0  0  0  0  0
   27.5192   64.6429   36.6337 O   0  0  0  0  0  0  0  0  0  0  0  0
   27.2158   62.3058   36.6224 C   0  0  0  0  0  0  0  0  0  0  0  0
   27.0197   64.2931   33.6849 N   0  0  0  0  0  0  0  0  0  0  0  0
   27.5348   63.8092   32.3957 C   0  0  2  0  0  0  0  0  0  0  0  0
   28.6956   62.9376   32.5843 C   0  0  0  0  0  0  0  0  0  0  0  0
   29.1997   62.8269   33.7563 O   0  0  0  0  0  0  0  0  0  0  0  0
   27.9027   65.0368   31.5686 C   0  0  2  0  0  0  0  0  0  0  0  0
   28.3745   64.6421   30.3282 O   0  0  0  0  0  0  0  0  0  0  0  0
   28.8960   65.9330   32.2676 C   0  0  0  0  0  0  0  0  0  0  0  0
   29.2598   62.2257   31.5023 N   0  0  0  0  0  0  0  0  0  0  0  0
   30.3756   61.2997   31.7604 C   0  0  2  0  0  0  0  0  0  0  0  0
   31.5127   62.0698   32.2781 C   0  0  0  0  0  0  0  0  0  0  0  0
   31.2914   63.0656   33.0424 O   0  0  0  0  0  0  0  0  0  0  0  0
   30.7676   60.6929   30.3820 C   0  0  0  0  0  0  0  0  0  0  0  0
   32.8612   61.7785   31.9781 N   0  0  0  0  0  0  0  0  0  0  0  0
   33.9337   62.7433   31.7709 C   0  0  2  0  0  0  0  0  0  0  0  0
   33.9895   63.1032   30.3013 C   0  0  0  0  0  0  0  0  0  0  0  0
   33.4369   64.1201   29.8814 O   0  0  0  0  0  0  0  0  0  0  0  0
   35.1888   62.0731   32.2464 C   0  0  0  0  0  0  0  0  0  0  0  0
   34.8135   60.6547   32.5172 C   0  0  0  0  0  0  0  0  0  0  0  0
   33.4355   60.4488   31.8867 C   0  0  0  0  0  0  0  0  0  0  0  0
   34.6809   62.2663   29.4022 N   0  0  0  0  0  0  0  0  0  0  0  0
   35.6882   62.5776   28.4685 C   0  0  2  0  0  0  0  0  0  0  0  0
   36.3801   61.4588   27.8226 C   0  0  0  0  0  0  0  0  0  0  0  0
   36.8461   60.5457   28.5851 O   0  0  0  0  0  0  0  0  0  0  0  0
   36.6805   63.6415   28.8450 C   0  0  0  0  0  0  0  0  0  0  0  0
   36.4571   64.8795   28.2844 O   0  0  0  0  0  0  0  0  0  0  0  0
   36.5976   61.2698   26.4347 N   0  0  0  0  0  0  0  0  0  0  0  0
   36.6953   59.9454   25.8493 C   0  0  2  0  0  0  0  0  0  0  0  0
   36.9392   60.1043   24.3648 C   0  0  0  0  0  0  0  0  0  0  0  0
   35.9597   60.2988   23.6297 O   0  0  0  0  0  0  0  0  0  0  0  0
   35.4309   59.1971   26.0656 C   0  0  0  0  0  0  0  0  0  0  0  0
   35.3126   57.8256   25.5345 C   0  0  1  0  0  0  0  0  0  0  0  0
   36.1884   56.8163   26.2411 C   0  0  0  0  0  0  0  0  0  0  0  0
   33.9239   57.2799   25.4032 C   0  0  0  0  0  0  0  0  0  0  0  0
   38.2437   60.0396   23.7985 N   0  0  0  0  0  0  0  0  0  0  0  0
   38.4674   59.5363   22.4611 C   0  0  2  0  0  0  0  0  0  0  0  0
   37.3827   58.6943   21.9433 C   0  0  0  0  0  0  0  0  0  0  0  0
   36.8874   57.8046   22.7119 O   0  0  0  0  0  0  0  0  0  0  0  0
   39.7228   58.6266   22.4750 C   0  0  0  0  0  0  0  0  0  0  0  0
   40.8379   59.3475   22.8286 O   0  0  0  0  0  0  0  0  0  0  0  0
   36.8315   58.7961   20.6439 N   0  0  0  0  0  0  0  0  0  0  0  0
   36.4853   57.6293   19.8850 C   0  0  0  0  0  0  0  0  0  0  0  0
   37.5296   57.1649   18.9678 C   0  0  0  0  0  0  0  0  0  0  0  0
   38.6127   56.7077   19.4958 O   0  0  0  0  0  0  0  0  0  0  0  0
   37.4266   57.1793   17.5573 N   0  0  0  0  0  0  0  0  0  0  0  0
   37.5249   55.8859   16.8516 C   0  0  2  0  0  0  0  0  0  0  0  0
   38.7169   55.8609   16.0186 C   0  0  0  0  0  0  0  0  0  0  0  0
   39.5010   56.8611   15.9163 O   0  0  0  0  0  0  0  0  0  0  0  0
   36.2113   55.5609   16.2184 C   0  0  0  0  0  0  0  0  0  0  0  0
   35.7562   56.4309   15.1080 C   0  0  0  0  0  0  0  0  0  0  0  0
   34.4972   56.0610   14.4206 C   0  0  0  0  0  0  0  0  0  0  0  0
   33.2685   56.5572   15.1730 C   0  0  0  0  0  0  0  0  0  0  0  0
   33.4255   57.9832   15.4729 N   0  0  0  0  0  4  0  0  0  0  0  0
   39.0967   54.7480   15.2713 O   0  0  0  0  0  0  0  0  0  0  0  0
  2  1  1  1
  2  3  1  0
  2  5  1  0
  3  4  2  0
  3  8  1  0
  5  6  1  0
  5  7  1  6
  9  8  1  1
  9 10  1  0
  9 12  1  0
 10 11  2  0
 10 15  1  0
 12 13  1  0
 12 14  1  1
 15 16  1  0
 16 17  1  0
 16 19  1  6
 17 18  2  0
 17 20  1  0
 20 21  1  0
 20 26  1  0
 21 22  1  6
 21 24  1  0
 22 23  2  0
 22 27  1  0
 24 25  1  0
 25 26  1  0
 27 28  1  0
 28 29  1  0
 28 31  1  1
 29 30  2  0
 29 33  1  0
 31 32  1  0
 33 34  1  0
 34 35  1  0
 34 37  1  6
 35 36  2  0
 35 41  1  0
 37 38  1  0
 38 39  1  1
 38 40  1  0
 41 42  1  0
 42 43  1  0
 42 45  1  1
 43 44  2  0
 43 47  1  0
 45 46  1  0
 47 48  1  0
 48 49  1  0
 49 50  2  0
 49 51  1  0
 51 52  1  0
 52 53  1  0
 52 55  1  6
 53 54  2  0
 53 60  1  0
 55 56  1  0
 56 57  1  0
 57 58  1  0
 58 59  1  0
M  CHG  2   1   1  59   1
M  END
$$$$
