
     RDKit          3D

 60 60  0  0  0  0  0  0  0  0999 V2000
   26.3281   63.0141   36.8701 N   0  0  0  0  0  4  0  0  0  0  0  0
   26.8076   64.3560   36.9967 C   0  0  2  0  0  0  0  0  0  0  0  0
   27.6653   64.8338   35.9073 C   0  0  0  0  0  0  0  0  0  0  0  0
   27.4112   65.9821   35.4473 O   0  0  0  0  0  0  0  0  0  0  0  0
   27.5669   64.5263   38.3102 C   0  0  2  0  0  0  0  0  0  0  0  0
   26.6475   64.3261   39.3364 O   0  0  0  0  0  0  0  0  0  0  0  0
   28.1515   65.9012   38.4358 C   0  0  0  0  0  0  0  0  0  0  0  0
   28.7482   64.1247   35.3265 N   0  0  0  0  0  0  0  0  0  0  0  0
   29.3951   64.6210   34.1031 C   0  0  2  0  0  0  0  0  0  0  0  0
   29.2105   63.6864   32.9917 C   0  0  0  0  0  0  0  0  0  0  0  0
   28.9980   62.4510   33.2536 O   0  0  0  0  0  0  0  0  0  0  0  0
   30.8754   64.8063   34.4201 C   0  0  2  0  0  0  0  0  0  0  0  0
   31.5469   65.2372   33.2886 O   0  0  0  0  0  0  0  0  0  0  0  0
   31.5099   63.5592   34.9864 C   0  0  0  0  0  0  0  0  0  0  0  0
   29.2634   64.1252   31.6499 N   0  0  0  0  0  0  0  0  0  0  0  0
   29.1079   63.1376   30.5684 C   0  0  2  0  0  0  0  0  0  0  0  0
   30.3137   62.3025   30.5203 C   0  0  0  0  0  0  0  0  0  0  0  0
   31.4237   62.7919   30.9118 O   0  0  0  0  0  0  0  0  0  0  0  0
   29.0086   63.9507   29.2452 C   0  0  0  0  0  0  0  0  0  0  0  0
   30.3283   60.9687   30.0574 N   0  0  0  0  0  0  0  0  0  0  0  0
   31.4900   60.0936   29.9642 C   0  0  2  0  0  0  0  0  0  0  0  0
   32.1228   60.2658   28.5995 C   0  0  0  0  0  0  0  0  0  0  0  0
   31.4494   60.6306   27.6356 O   0  0  0  0  0  0  0  0  0  0  0  0
   30.9768   58.7018   30.1881 C   0  0  0  0  0  0  0  0  0  0  0  0
   29.4890   58.8143   30.1935 C   0  0  0  0  0  0  0  0  0  0  0  0
   29.1631   60.2059   29.6495 C   0  0  0  0  0  0  0  0  0  0  0  0
   33.4976   60.0060   28.4284 N   0  0  0  0  0  0  0  0  0  0  0  0
   34.3697   60.3938   27.3929 C   0  0  2  0  0  0  0  0  0  0  0  0
   34.9401   59.3336   26.5572 C   0  0  0  0  0  0  0  0  0  0  0  0
   36.1929   59.3962   26.3140 O   0  0  0  0  0  0  0  0  0  0  0  0
   35.4272   61.4105   27.7186 C   0  0  0  0  0  0  0  0  0  0  0  0
   36.6407   60.8918   28.1130 O   0  0  0  0  0  0  0  0  0  0  0  0
   34.2566   58.2351   25.9783 N   0  0  0  0  0  0  0  0  0  0  0  0
   34.3310   57.9509   24.5570 C   0  0  2  0  0  0  0  0  0  0  0  0
   35.7137   58.3291   24.0736 C   0  0  0  0  0  0  0  0  0  0  0  0
   36.0246   59.5294   24.0746 O   0  0  0  0  0  0  0  0  0  0  0  0
   33.3152   58.7478   23.8232 C   0  0  0  0  0  0  0  0  0  0  0  0
   33.2355   58.6256   22.3550 C   0  0  1  0  0  0  0  0  0  0  0  0
   32.7570   57.2737   21.8768 C   0  0  0  0  0  0  0  0  0  0  0  0
   32.4867   59.7056   21.6366 C   0  0  0  0  0  0  0  0  0  0  0  0
   36.6537   57.3579   23.6264 N   0  0  0  0  0  0  0  0  0  0  0  0
   37.9241   57.7392   23.0497 C   0  0  2  0  0  0  0  0  0  0  0  0
   37.8812   57.9861   21.6037 C   0  0  0  0  0  0  0  0  0  0  0  0
   38.9669   58.2967   21.0102 O   0  0  0  0  0  0  0  0  0  0  0  0
   38.9266   56.5716   23.2376 C   0  0  0  0  0  0  0  0  0  0  0  0
   39.8015   56.5110   22.1798 O   0  0  0  0  0  0  0  0  0  0  0  0
   36.7168   57.9004   20.8042 N   0  0  0  0  0  0  0  0  0  0  0  0
   36.7469   58.2092   19.4038 C   0  0  0  0  0  0  0  0  0  0  0  0
   36.9773   57.0566   18.5288 C   0  0  0  0  0  0  0  0  0  0  0  0
   36.0655   56.1460   18.5062 O   0  0  0  0  0  0  0  0  0  0  0  0
   38.1184   56.8817   17.7116 N   0  0  0  0  0  0  0  0  0  0  0  0
   37.9716   56.0472   16.5023 C   0  0  2  0  0  0  0  0  0  0  0  0
   37.5691   54.6992   16.8716 C   0  0  0  0  0  0  0  0  0  0  0  0
   37.0613   53.8832   16.0337 O   0  0  0  0  0  0  0  0  0  0  0  0
   39.1739   56.2138   15.6311 C   0  0  0  0  0  0  0  0  0  0  0  0
   39.8910   57.5091   15.6997 C   0  0  0  0  0  0  0  0  0  0  0  0
   40.9744   57.6394   16.7014 C   0  0  0  0  0  0  0  0  0  0  0  0
   41.9404   58.7659   16.3549 C   0  0  0  0  0  0  0  0  0  0  0  0
   41.3745   60.0440   16.7958 N   0  0  0  0  0  4  0  0  0  0  0  0
   37.7069   54.1934   18.1625 O   0  0  0  0  0  0  0  0  0  0  0  0
  2  1  1  6
  2  3  1  0
  2  5  1  0
  3  4  2  0
  3  8  1  0
  5  6  1  0
  5  7  1  6
  9  8  1  1
  9 10  1  0
  9 12  1  0
 10 11  2  0
 10 15  1  0
 12 13  1  0
 12 14  1  6
 15 16  1  0
 16 17  1  0
 16 19  1  6
 17 18  2  0
 17 20  1  0
 20 21  1  0
 20 26  1  0
 21 22  1  6
 21 24  1  0
 22 23  2  0
 22 27  1  0
 24 25  1  0
 25 26  1  0
 27 28  1  0
 28 29  1  0
 28 31  1  1
 29 30  2  0
 29 33  1  0
 31 32  1  0
 33 34  1  0
 34 35  1  0
 34 37  1  6
 35 36  2  0
 35 41  1  0
 37 38  1  0
 38 39  1  1
 38 40  1  0
 41 42  1  0
 42 43  1  0
 42 45  1  6
 43 44  2  0
 43 47  1  0
 45 46  1  0
 47 48  1  0
 48 49  1  0
 49 50  2  0
 49 51  1  0
 51 52  1  0
 52 53  1  0
 52 55  1  1
 53 54  2  0
 53 60  1  0
 55 56  1  0
 56 57  1  0
 57 58  1  0
 58 59  1  0
M  CHG  2   1   1  59   1
M  END
$$$$
