
     RDKit          3D

 60 60  0  0  0  0  0  0  0  0999 V2000
   25.2891   63.0213   36.8210 N   0  0  0  0  0  4  0  0  0  0  0  0
   25.9557   63.7131   35.7610 C   0  0  2  0  0  0  0  0  0  0  0  0
   26.4021   62.8831   34.6373 C   0  0  0  0  0  0  0  0  0  0  0  0
   26.2267   61.6374   34.7476 O   0  0  0  0  0  0  0  0  0  0  0  0
   27.1644   64.4732   36.3012 C   0  0  2  0  0  0  0  0  0  0  0  0
   27.9759   63.5392   36.9396 O   0  0  0  0  0  0  0  0  0  0  0  0
   26.7584   65.5268   37.2877 C   0  0  0  0  0  0  0  0  0  0  0  0
   27.0111   63.3519   33.4448 N   0  0  0  0  0  0  0  0  0  0  0  0
   27.4667   62.4047   32.4169 C   0  0  2  0  0  0  0  0  0  0  0  0
   28.8054   61.8974   32.7225 C   0  0  0  0  0  0  0  0  0  0  0  0
   29.3860   62.2946   33.7925 O   0  0  0  0  0  0  0  0  0  0  0  0
   27.4553   63.1466   31.0844 C   0  0  2  0  0  0  0  0  0  0  0  0
   28.1105   64.3590   31.2171 O   0  0  0  0  0  0  0  0  0  0  0  0
   26.0616   63.3393   30.5376 C   0  0  0  0  0  0  0  0  0  0  0  0
   29.4569   60.9860   31.8617 N   0  0  0  0  0  0  0  0  0  0  0  0
   30.8280   60.5547   32.1832 C   0  0  2  0  0  0  0  0  0  0  0  0
   31.7584   61.2400   31.2785 C   0  0  0  0  0  0  0  0  0  0  0  0
   31.3523   61.5967   30.1241 O   0  0  0  0  0  0  0  0  0  0  0  0
   30.8839   59.0263   31.8956 C   0  0  0  0  0  0  0  0  0  0  0  0
   33.1002   61.5336   31.6055 N   0  0  0  0  0  0  0  0  0  0  0  0
   34.0152   62.3771   30.8471 C   0  0  2  0  0  0  0  0  0  0  0  0
   34.7544   61.5170   29.8441 C   0  0  0  0  0  0  0  0  0  0  0  0
   35.9713   61.3524   29.9327 O   0  0  0  0  0  0  0  0  0  0  0  0
   34.9334   63.0008   31.8563 C   0  0  0  0  0  0  0  0  0  0  0  0
   34.6376   62.3186   33.1498 C   0  0  0  0  0  0  0  0  0  0  0  0
   33.7908   61.0931   32.8034 C   0  0  0  0  0  0  0  0  0  0  0  0
   34.0437   60.8970   28.7965 N   0  0  0  0  0  0  0  0  0  0  0  0
   34.5193   60.2425   27.6438 C   0  0  2  0  0  0  0  0  0  0  0  0
   35.9436   60.3801   27.3276 C   0  0  0  0  0  0  0  0  0  0  0  0
   36.6386   61.1314   28.0925 O   0  0  0  0  0  0  0  0  0  0  0  0
   33.7040   60.3667   26.3875 C   0  0  0  0  0  0  0  0  0  0  0  0
   34.3511   60.9509   25.3213 O   0  0  0  0  0  0  0  0  0  0  0  0
   36.6485   59.7723   26.2586 N   0  0  0  0  0  0  0  0  0  0  0  0
   38.0978   59.7970   26.1862 C   0  0  2  0  0  0  0  0  0  0  0  0
   38.4969   59.7374   24.7282 C   0  0  0  0  0  0  0  0  0  0  0  0
   38.9067   58.6568   24.2787 O   0  0  0  0  0  0  0  0  0  0  0  0
   38.6648   58.6263   26.9026 C   0  0  0  0  0  0  0  0  0  0  0  0
   38.6092   58.5952   28.3767 C   0  0  1  0  0  0  0  0  0  0  0  0
   39.1319   57.3132   28.9836 C   0  0  0  0  0  0  0  0  0  0  0  0
   39.2074   59.7683   29.0905 C   0  0  0  0  0  0  0  0  0  0  0  0
   38.4136   60.8711   23.8712 N   0  0  0  0  0  0  0  0  0  0  0  0
   38.8391   60.8125   22.4900 C   0  0  2  0  0  0  0  0  0  0  0  0
   37.9477   60.0416   21.6156 C   0  0  0  0  0  0  0  0  0  0  0  0
   37.1245   59.2296   22.1547 O   0  0  0  0  0  0  0  0  0  0  0  0
   40.2086   60.0892   22.4213 C   0  0  0  0  0  0  0  0  0  0  0  0
   41.2009   60.8829   22.9444 O   0  0  0  0  0  0  0  0  0  0  0  0
   37.9246   60.1328   20.2036 N   0  0  0  0  0  0  0  0  0  0  0  0
   37.2989   59.1234   19.3992 C   0  0  0  0  0  0  0  0  0  0  0  0
   37.3669   59.3637   17.9553 C   0  0  0  0  0  0  0  0  0  0  0  0
   38.4518   59.8889   17.4989 O   0  0  0  0  0  0  0  0  0  0  0  0
   36.3351   59.0554   17.0385 N   0  0  0  0  0  0  0  0  0  0  0  0
   36.4840   57.8295   16.2288 C   0  0  2  0  0  0  0  0  0  0  0  0
   35.4229   57.7542   15.2369 C   0  0  0  0  0  0  0  0  0  0  0  0
   35.6439   57.4386   14.0214 O   0  0  0  0  0  0  0  0  0  0  0  0
   36.6950   56.6572   17.1307 C   0  0  0  0  0  0  0  0  0  0  0  0
   36.9331   55.3407   16.4928 C   0  0  0  0  0  0  0  0  0  0  0  0
   37.0155   54.1560   17.3782 C   0  0  0  0  0  0  0  0  0  0  0  0
   37.3313   52.8834   16.6018 C   0  0  0  0  0  0  0  0  0  0  0  0
   38.5757   52.2999   17.1109 N   0  0  0  0  0  4  0  0  0  0  0  0
   34.0873   58.0174   15.5336 O   0  0  0  0  0  0  0  0  0  0  0  0
  2  1  1  1
  2  3  1  0
  2  5  1  0
  3  4  2  0
  3  8  1  0
  5  6  1  0
  5  7  1  1
  9  8  1  1
  9 10  1  0
  9 12  1  0
 10 11  2  0
 10 15  1  0
 12 13  1  0
 12 14  1  1
 15 16  1  0
 16 17  1  0
 16 19  1  6
 17 18  2  0
 17 20  1  0
 20 21  1  0
 20 26  1  0
 21 22  1  6
 21 24  1  0
 22 23  2  0
 22 27  1  0
 24 25  1  0
 25 26  1  0
 27 28  1  0
 28 29  1  0
 28 31  1  6
 29 30  2  0
 29 33  1  0
 31 32  1  0
 33 34  1  0
 34 35  1  0
 34 37  1  1
 35 36  2  0
 35 41  1  0
 37 38  1  0
 38 39  1  1
 38 40  1  0
 41 42  1  0
 42 43  1  0
 42 45  1  1
 43 44  2  0
 43 47  1  0
 45 46  1  0
 47 48  1  0
 48 49  1  0
 49 50  2  0
 49 51  1  0
 51 52  1  0
 52 53  1  0
 52 55  1  1
 53 54  2  0
 53 60  1  0
 55 56  1  0
 56 57  1  0
 57 58  1  0
 58 59  1  0
M  CHG  2   1   1  59   1
M  END
$$$$
