
     RDKit          3D

 60 60  0  0  0  0  0  0  0  0999 V2000
   27.7839   63.7949   37.6199 N   0  0  0  0  0  4  0  0  0  0  0  0
   26.8572   64.2501   36.6296 C   0  0  2  0  0  0  0  0  0  0  0  0
   27.0067   63.6604   35.2951 C   0  0  0  0  0  0  0  0  0  0  0  0
   25.9421   63.3916   34.6713 O   0  0  0  0  0  0  0  0  0  0  0  0
   26.9328   65.7685   36.4904 C   0  0  2  0  0  0  0  0  0  0  0  0
   28.2147   66.0687   36.0376 O   0  0  0  0  0  0  0  0  0  0  0  0
   26.7022   66.4554   37.8031 C   0  0  0  0  0  0  0  0  0  0  0  0
   28.2335   63.3657   34.6465 N   0  0  0  0  0  0  0  0  0  0  0  0
   28.2529   62.5635   33.4147 C   0  0  2  0  0  0  0  0  0  0  0  0
   29.5130   61.8303   33.2816 C   0  0  0  0  0  0  0  0  0  0  0  0
   30.5438   62.2566   33.9106 O   0  0  0  0  0  0  0  0  0  0  0  0
   28.0555   63.5256   32.2478 C   0  0  2  0  0  0  0  0  0  0  0  0
   27.7705   64.7926   32.7277 O   0  0  0  0  0  0  0  0  0  0  0  0
   26.9933   63.0589   31.2821 C   0  0  0  0  0  0  0  0  0  0  0  0
   29.6047   60.6724   32.4775 N   0  0  0  0  0  0  0  0  0  0  0  0
   30.8958   59.9704   32.3802 C   0  0  2  0  0  0  0  0  0  0  0  0
   31.7705   60.7228   31.4732 C   0  0  0  0  0  0  0  0  0  0  0  0
   31.3195   61.7695   30.9023 O   0  0  0  0  0  0  0  0  0  0  0  0
   30.5916   58.5823   31.7458 C   0  0  0  0  0  0  0  0  0  0  0  0
   33.1025   60.3566   31.1820 N   0  0  0  0  0  0  0  0  0  0  0  0
   34.0028   61.0219   30.2488 C   0  0  2  0  0  0  0  0  0  0  0  0
   33.8397   60.3934   28.8809 C   0  0  0  0  0  0  0  0  0  0  0  0
   34.1346   61.0187   27.8623 O   0  0  0  0  0  0  0  0  0  0  0  0
   35.3837   60.8371   30.8051 C   0  0  0  0  0  0  0  0  0  0  0  0
   35.2384   59.8809   31.9412 C   0  0  0  0  0  0  0  0  0  0  0  0
   33.8379   59.2790   31.8176 C   0  0  0  0  0  0  0  0  0  0  0  0
   33.3450   59.0782   28.7703 N   0  0  0  0  0  0  0  0  0  0  0  0
   32.8162   58.4013   27.6543 C   0  0  2  0  0  0  0  0  0  0  0  0
   33.7673   57.8512   26.6844 C   0  0  0  0  0  0  0  0  0  0  0  0
   33.5205   56.6842   26.2264 O   0  0  0  0  0  0  0  0  0  0  0  0
   31.6661   59.0445   26.9317 C   0  0  0  0  0  0  0  0  0  0  0  0
   31.4015   58.5384   25.6784 O   0  0  0  0  0  0  0  0  0  0  0  0
   34.9439   58.4683   26.1908 N   0  0  0  0  0  0  0  0  0  0  0  0
   35.1554   58.6864   24.7716 C   0  0  2  0  0  0  0  0  0  0  0  0
   36.5371   59.2743   24.5869 C   0  0  0  0  0  0  0  0  0  0  0  0
   36.8350   60.2829   25.2438 O   0  0  0  0  0  0  0  0  0  0  0  0
   34.1404   59.6332   24.2438 C   0  0  0  0  0  0  0  0  0  0  0  0
   34.1279   59.9354   22.7997 C   0  0  1  0  0  0  0  0  0  0  0  0
   35.1266   59.1339   21.9964 C   0  0  0  0  0  0  0  0  0  0  0  0
   32.7924   59.8960   22.1226 C   0  0  0  0  0  0  0  0  0  0  0  0
   37.4903   58.7075   23.6943 N   0  0  0  0  0  0  0  0  0  0  0  0
   38.7484   59.3621   23.4103 C   0  0  2  0  0  0  0  0  0  0  0  0
   39.1278   59.3524   21.9927 C   0  0  0  0  0  0  0  0  0  0  0  0
   40.1573   60.0164   21.6370 O   0  0  0  0  0  0  0  0  0  0  0  0
   39.8823   58.6011   24.1443 C   0  0  0  0  0  0  0  0  0  0  0  0
   39.7369   58.7139   25.5061 O   0  0  0  0  0  0  0  0  0  0  0  0
   38.4362   58.6510   20.9766 N   0  0  0  0  0  0  0  0  0  0  0  0
   39.0865   58.2687   19.7565 C   0  0  0  0  0  0  0  0  0  0  0  0
   38.1965   57.6946   18.7438 C   0  0  0  0  0  0  0  0  0  0  0  0
   37.0553   57.2533   19.1486 O   0  0  0  0  0  0  0  0  0  0  0  0
   38.5008   57.5991   17.3659 N   0  0  0  0  0  0  0  0  0  0  0  0
   37.5137   56.9332   16.4926 C   0  0  2  0  0  0  0  0  0  0  0  0
   37.5282   55.4977   16.7263 C   0  0  0  0  0  0  0  0  0  0  0  0
   38.2947   54.9525   17.5871 O   0  0  0  0  0  0  0  0  0  0  0  0
   37.6750   57.4242   15.0908 C   0  0  0  0  0  0  0  0  0  0  0  0
   38.9195   57.0518   14.3772 C   0  0  0  0  0  0  0  0  0  0  0  0
   39.7334   58.1483   13.8029 C   0  0  0  0  0  0  0  0  0  0  0  0
   41.0040   57.6299   13.1404 C   0  0  0  0  0  0  0  0  0  0  0  0
   41.2957   58.4360   11.9515 N   0  0  0  0  0  4  0  0  0  0  0  0
   36.7092   54.6082   16.0340 O   0  0  0  0  0  0  0  0  0  0  0  0
  2  1  1  1
  2  3  1  0
  2  5  1  0
  3  4  2  0
  3  8  1  0
  5  6  1  0
  5  7  1  1
  9  8  1  1
  9 10  1  0
  9 12  1  0
 10 11  2  0
 10 15  1  0
 12 13  1  0
 12 14  1  6
 15 16  1  0
 16 17  1  0
 16 19  1  6
 17 18  2  0
 17 20  1  0
 20 21  1  0
 20 26  1  0
 21 22  1  6
 21 24  1  0
 22 23  2  0
 22 27  1  0
 24 25  1  0
 25 26  1  0
 27 28  1  0
 28 29  1  0
 28 31  1  6
 29 30  2  0
 29 33  1  0
 31 32  1  0
 33 34  1  0
 34 35  1  0
 34 37  1  1
 35 36  2  0
 35 41  1  0
 37 38  1  0
 38 39  1  6
 38 40  1  0
 41 42  1  0
 42 43  1  0
 42 45  1  1
 43 44  2  0
 43 47  1  0
 45 46  1  0
 47 48  1  0
 48 49  1  0
 49 50  2  0
 49 51  1  0
 51 52  1  0
 52 53  1  0
 52 55  1  6
 53 54  2  0
 53 60  1  0
 55 56  1  0
 56 57  1  0
 57 58  1  0
 58 59  1  0
M  CHG  2   1   1  59   1
M  END
$$$$
