
     RDKit          3D

 60 60  0  0  0  0  0  0  0  0999 V2000
   24.1958   63.0381   34.5989 N   0  0  0  0  0  4  0  0  0  0  0  0
   25.5360   63.4592   34.3287 C   0  0  2  0  0  0  0  0  0  0  0  0
   26.2672   62.6663   33.3350 C   0  0  0  0  0  0  0  0  0  0  0  0
   25.9298   61.4552   33.2160 O   0  0  0  0  0  0  0  0  0  0  0  0
   26.3551   63.4809   35.6168 C   0  0  2  0  0  0  0  0  0  0  0  0
   25.6957   64.3317   36.4999 O   0  0  0  0  0  0  0  0  0  0  0  0
   27.7425   63.9981   35.3803 C   0  0  0  0  0  0  0  0  0  0  0  0
   27.3147   63.1353   32.5011 N   0  0  0  0  0  0  0  0  0  0  0  0
   27.9426   62.2416   31.5170 C   0  0  2  0  0  0  0  0  0  0  0  0
   29.2889   61.8527   31.9402 C   0  0  0  0  0  0  0  0  0  0  0  0
   29.8137   62.4441   32.9475 O   0  0  0  0  0  0  0  0  0  0  0  0
   27.9832   62.9914   30.1895 C   0  0  2  0  0  0  0  0  0  0  0  0
   28.5663   62.1948   29.2187 O   0  0  0  0  0  0  0  0  0  0  0  0
   28.6867   64.3228   30.2943 C   0  0  0  0  0  0  0  0  0  0  0  0
   30.0078   60.8451   31.2591 N   0  0  0  0  0  0  0  0  0  0  0  0
   31.3247   60.4340   31.7749 C   0  0  2  0  0  0  0  0  0  0  0  0
   32.3121   61.4543   31.4035 C   0  0  0  0  0  0  0  0  0  0  0  0
   32.0130   62.3105   30.5076 O   0  0  0  0  0  0  0  0  0  0  0  0
   31.6820   59.1040   31.0502 C   0  0  0  0  0  0  0  0  0  0  0  0
   33.5971   61.5515   31.9802 N   0  0  0  0  0  0  0  0  0  0  0  0
   34.1464   62.6991   32.6910 C   0  0  2  0  0  0  0  0  0  0  0  0
   34.8450   63.6012   31.6956 C   0  0  0  0  0  0  0  0  0  0  0  0
   35.0317   64.7915   31.9487 O   0  0  0  0  0  0  0  0  0  0  0  0
   35.0868   62.1377   33.7162 C   0  0  0  0  0  0  0  0  0  0  0  0
   35.1991   60.6819   33.4093 C   0  0  0  0  0  0  0  0  0  0  0  0
   34.5838   60.4882   32.0226 C   0  0  0  0  0  0  0  0  0  0  0  0
   35.2871   63.0747   30.4651 N   0  0  0  0  0  0  0  0  0  0  0  0
   36.1008   63.6548   29.4728 C   0  0  2  0  0  0  0  0  0  0  0  0
   36.3646   62.8639   28.2676 C   0  0  0  0  0  0  0  0  0  0  0  0
   37.0695   63.4135   27.3547 O   0  0  0  0  0  0  0  0  0  0  0  0
   37.3623   64.3382   29.9201 C   0  0  0  0  0  0  0  0  0  0  0  0
   37.2576   65.6976   30.1154 O   0  0  0  0  0  0  0  0  0  0  0  0
   35.9223   61.5458   27.9916 N   0  0  0  0  0  0  0  0  0  0  0  0
   36.8317   60.4148   28.0077 C   0  0  2  0  0  0  0  0  0  0  0  0
   36.4514   59.4894   26.8729 C   0  0  0  0  0  0  0  0  0  0  0  0
   36.0333   58.3574   27.1578 O   0  0  0  0  0  0  0  0  0  0  0  0
   36.7194   59.6878   29.2977 C   0  0  0  0  0  0  0  0  0  0  0  0
   37.5353   58.4766   29.5086 C   0  0  1  0  0  0  0  0  0  0  0  0
   37.3115   57.8115   30.8475 C   0  0  0  0  0  0  0  0  0  0  0  0
   37.4902   57.4460   28.4228 C   0  0  0  0  0  0  0  0  0  0  0  0
   36.5571   59.8789   25.5077 N   0  0  0  0  0  0  0  0  0  0  0  0
   35.9579   59.0997   24.4466 C   0  0  2  0  0  0  0  0  0  0  0  0
   36.0637   59.7093   23.1159 C   0  0  0  0  0  0  0  0  0  0  0  0
   35.1463   60.5139   22.7439 O   0  0  0  0  0  0  0  0  0  0  0  0
   34.4372   58.9723   24.7205 C   0  0  0  0  0  0  0  0  0  0  0  0
   33.8356   60.2073   24.6897 O   0  0  0  0  0  0  0  0  0  0  0  0
   37.1196   59.4766   22.2029 N   0  0  0  0  0  0  0  0  0  0  0  0
   37.2872   58.2044   21.5620 C   0  0  0  0  0  0  0  0  0  0  0  0
   36.0519   57.6183   21.0349 C   0  0  0  0  0  0  0  0  0  0  0  0
   35.3961   56.8313   21.8170 O   0  0  0  0  0  0  0  0  0  0  0  0
   35.5339   57.8610   19.7414 N   0  0  0  0  0  0  0  0  0  0  0  0
   35.5272   56.7354   18.7856 C   0  0  2  0  0  0  0  0  0  0  0  0
   35.5429   55.4706   19.5036 C   0  0  0  0  0  0  0  0  0  0  0  0
   36.1309   54.4339   19.0503 O   0  0  0  0  0  0  0  0  0  0  0  0
   36.5636   56.9660   17.7345 C   0  0  0  0  0  0  0  0  0  0  0  0
   36.7145   55.9283   16.6870 C   0  0  0  0  0  0  0  0  0  0  0  0
   36.5320   56.3467   15.2778 C   0  0  0  0  0  0  0  0  0  0  0  0
   36.4308   55.1530   14.3360 C   0  0  0  0  0  0  0  0  0  0  0  0
   35.1980   54.4131   14.6201 N   0  0  0  0  0  4  0  0  0  0  0  0
   34.9221   55.2913   20.7380 O   0  0  0  0  0  0  0  0  0  0  0  0
  2  1  1  1
  2  3  1  0
  2  5  1  0
  3  4  2  0
  3  8  1  0
  5  6  1  0
  5  7  1  6
  9  8  1  1
  9 10  1  0
  9 12  1  0
 10 11  2  0
 10 15  1  0
 12 13  1  0
 12 14  1  1
 15 16  1  0
 16 17  1  0
 16 19  1  6
 17 18  2  0
 17 20  1  0
 20 21  1  0
 20 26  1  0
 21 22  1  6
 21 24  1  0
 22 23  2  0
 22 27  1  0
 24 25  1  0
 25 26  1  0
 27 28  1  0
 28 29  1  0
 28 31  1  1
 29 30  2  0
 29 33  1  0
 31 32  1  0
 33 34  1  0
 34 35  1  0
 34 37  1  1
 35 36  2  0
 35 41  1  0
 37 38  1  0
 38 39  1  1
 38 40  1  0
 41 42  1  0
 42 43  1  0
 42 45  1  1
 43 44  2  0
 43 47  1  0
 45 46  1  0
 47 48  1  0
 48 49  1  0
 49 50  2  0
 49 51  1  0
 51 52  1  0
 52 53  1  0
 52 55  1  6
 53 54  2  0
 53 60  1  0
 55 56  1  0
 56 57  1  0
 57 58  1  0
 58 59  1  0
M  CHG  2   1   1  59   1
M  END
$$$$
