
     RDKit          3D

 60 60  0  0  0  0  0  0  0  0999 V2000
   24.4274   63.7343   36.1114 N   0  0  0  0  0  4  0  0  0  0  0  0
   25.6708   63.0318   36.0273 C   0  0  2  0  0  0  0  0  0  0  0  0
   26.5746   63.4583   34.9539 C   0  0  0  0  0  0  0  0  0  0  0  0
   26.0403   63.7709   33.8532 O   0  0  0  0  0  0  0  0  0  0  0  0
   25.4241   61.5330   35.8745 C   0  0  2  0  0  0  0  0  0  0  0  0
   24.6847   61.1308   36.9836 O   0  0  0  0  0  0  0  0  0  0  0  0
   26.7100   60.7628   35.8360 C   0  0  0  0  0  0  0  0  0  0  0  0
   27.9877   63.5493   35.0408 N   0  0  0  0  0  0  0  0  0  0  0  0
   28.7667   64.1407   33.9432 C   0  0  2  0  0  0  0  0  0  0  0  0
   29.1448   63.1265   32.9576 C   0  0  0  0  0  0  0  0  0  0  0  0
   29.2761   61.9121   33.3419 O   0  0  0  0  0  0  0  0  0  0  0  0
   30.0016   64.7855   34.5641 C   0  0  2  0  0  0  0  0  0  0  0  0
   30.6254   65.5973   33.6320 O   0  0  0  0  0  0  0  0  0  0  0  0
   30.9645   63.7711   35.1319 C   0  0  0  0  0  0  0  0  0  0  0  0
   29.3641   63.4671   31.6042 N   0  0  0  0  0  0  0  0  0  0  0  0
   29.8301   62.4264   30.6719 C   0  0  2  0  0  0  0  0  0  0  0  0
   31.2418   62.1424   30.9553 C   0  0  0  0  0  0  0  0  0  0  0  0
   31.8924   62.9297   31.7180 O   0  0  0  0  0  0  0  0  0  0  0  0
   29.7186   63.0368   29.2447 C   0  0  0  0  0  0  0  0  0  0  0  0
   31.9425   61.0363   30.4271 N   0  0  0  0  0  0  0  0  0  0  0  0
   33.2904   60.6109   30.7825 C   0  0  2  0  0  0  0  0  0  0  0  0
   34.2780   61.3022   29.8664 C   0  0  0  0  0  0  0  0  0  0  0  0
   33.9561   62.3141   29.2435 O   0  0  0  0  0  0  0  0  0  0  0  0
   33.3070   59.1192   30.6244 C   0  0  0  0  0  0  0  0  0  0  0  0
   32.0111   58.7657   29.9749 C   0  0  0  0  0  0  0  0  0  0  0  0
   31.4113   60.0801   29.4734 C   0  0  0  0  0  0  0  0  0  0  0  0
   35.5807   60.7832   29.7236 N   0  0  0  0  0  0  0  0  0  0  0  0
   36.6790   61.2826   28.9972 C   0  0  2  0  0  0  0  0  0  0  0  0
   36.5254   61.4152   27.5459 C   0  0  0  0  0  0  0  0  0  0  0  0
   37.5845   61.6408   26.8677 O   0  0  0  0  0  0  0  0  0  0  0  0
   38.0365   60.7229   29.3170 C   0  0  0  0  0  0  0  0  0  0  0  0
   39.0384   61.0704   28.4380 O   0  0  0  0  0  0  0  0  0  0  0  0
   35.3252   61.3238   26.7974 N   0  0  0  0  0  0  0  0  0  0  0  0
   34.9646   60.1182   26.0744 C   0  0  2  0  0  0  0  0  0  0  0  0
   35.8525   60.0186   24.8537 C   0  0  0  0  0  0  0  0  0  0  0  0
   35.9526   61.0145   24.1217 O   0  0  0  0  0  0  0  0  0  0  0  0
   33.5434   60.1841   25.6485 C   0  0  0  0  0  0  0  0  0  0  0  0
   32.9974   59.0987   24.8114 C   0  0  1  0  0  0  0  0  0  0  0  0
   33.0324   57.7387   25.4704 C   0  0  0  0  0  0  0  0  0  0  0  0
   31.6427   59.3334   24.2172 C   0  0  0  0  0  0  0  0  0  0  0  0
   36.5669   58.8307   24.5293 N   0  0  0  0  0  0  0  0  0  0  0  0
   37.3620   58.7269   23.3255 C   0  0  2  0  0  0  0  0  0  0  0  0
   36.5835   58.7662   22.0822 C   0  0  0  0  0  0  0  0  0  0  0  0
   35.6036   59.5796   22.0070 O   0  0  0  0  0  0  0  0  0  0  0  0
   38.0780   57.3518   23.3189 C   0  0  0  0  0  0  0  0  0  0  0  0
   38.8253   57.1907   24.4607 O   0  0  0  0  0  0  0  0  0  0  0  0
   36.8405   57.9668   20.9431 N   0  0  0  0  0  0  0  0  0  0  0  0
   36.0843   58.1227   19.7342 C   0  0  0  0  0  0  0  0  0  0  0  0
   36.5540   57.3080   18.6104 C   0  0  0  0  0  0  0  0  0  0  0  0
   37.1620   56.2084   18.8972 O   0  0  0  0  0  0  0  0  0  0  0  0
   36.3811   57.6415   17.2468 N   0  0  0  0  0  0  0  0  0  0  0  0
   36.6151   56.5790   16.2485 C   0  0  2  0  0  0  0  0  0  0  0  0
   35.7227   55.4572   16.4945 C   0  0  0  0  0  0  0  0  0  0  0  0
   35.0935   54.8652   15.5567 O   0  0  0  0  0  0  0  0  0  0  0  0
   38.0805   56.3080   16.1410 C   0  0  0  0  0  0  0  0  0  0  0  0
   38.9537   57.4342   15.7335 C   0  0  0  0  0  0  0  0  0  0  0  0
   39.5271   57.3963   14.3683 C   0  0  0  0  0  0  0  0  0  0  0  0
   40.4011   58.6113   14.0818 C   0  0  0  0  0  0  0  0  0  0  0  0
   41.6954   58.1660   13.5577 N   0  0  0  0  0  4  0  0  0  0  0  0
   35.4863   54.9409   17.7668 O   0  0  0  0  0  0  0  0  0  0  0  0
  2  1  1  6
  2  3  1  0
  2  5  1  0
  3  4  2  0
  3  8  1  0
  5  6  1  0
  5  7  1  1
  9  8  1  1
  9 10  1  0
  9 12  1  0
 10 11  2  0
 10 15  1  0
 12 13  1  0
 12 14  1  6
 15 16  1  0
 16 17  1  0
 16 19  1  6
 17 18  2  0
 17 20  1  0
 20 21  1  0
 20 26  1  0
 21 22  1  6
 21 24  1  0
 22 23  2  0
 22 27  1  0
 24 25  1  0
 25 26  1  0
 27 28  1  0
 28 29  1  0
 28 31  1  6
 29 30  2  0
 29 33  1  0
 31 32  1  0
 33 34  1  0
 34 35  1  0
 34 37  1  6
 35 36  2  0
 35 41  1  0
 37 38  1  0
 38 39  1  1
 38 40  1  0
 41 42  1  0
 42 43  1  0
 42 45  1  1
 43 44  2  0
 43 47  1  0
 45 46  1  0
 47 48  1  0
 48 49  1  0
 49 50  2  0
 49 51  1  0
 51 52  1  0
 52 53  1  0
 52 55  1  1
 53 54  2  0
 53 60  1  0
 55 56  1  0
 56 57  1  0
 57 58  1  0
 58 59  1  0
M  CHG  2   1   1  59   1
M  END
$$$$
