
     RDKit          3D

 60 60  0  0  0  0  0  0  0  0999 V2000
   24.4983   63.2836   35.5861 N   0  0  0  0  0  4  0  0  0  0  0  0
   25.5204   63.8109   34.7353 C   0  0  2  0  0  0  0  0  0  0  0  0
   26.4006   62.8218   34.1048 C   0  0  0  0  0  0  0  0  0  0  0  0
   26.4146   61.6672   34.6163 O   0  0  0  0  0  0  0  0  0  0  0  0
   26.3912   64.8020   35.5036 C   0  0  2  0  0  0  0  0  0  0  0  0
   26.8381   65.7450   34.5820 O   0  0  0  0  0  0  0  0  0  0  0  0
   27.5750   64.1274   36.1293 C   0  0  0  0  0  0  0  0  0  0  0  0
   27.2341   63.0451   32.9787 N   0  0  0  0  0  0  0  0  0  0  0  0
   28.1701   62.0062   32.5247 C   0  0  2  0  0  0  0  0  0  0  0  0
   29.5362   62.2986   32.9618 C   0  0  0  0  0  0  0  0  0  0  0  0
   29.8398   63.5032   33.2724 O   0  0  0  0  0  0  0  0  0  0  0  0
   28.0830   61.9557   31.0029 C   0  0  2  0  0  0  0  0  0  0  0  0
   28.9631   61.0052   30.5141 O   0  0  0  0  0  0  0  0  0  0  0  0
   28.3245   63.3005   30.3612 C   0  0  0  0  0  0  0  0  0  0  0  0
   30.5121   61.2804   33.0440 N   0  0  0  0  0  0  0  0  0  0  0  0
   31.8792   61.6330   33.4634 C   0  0  2  0  0  0  0  0  0  0  0  0
   32.5624   62.2792   32.3367 C   0  0  0  0  0  0  0  0  0  0  0  0
   32.2107   61.9863   31.1469 O   0  0  0  0  0  0  0  0  0  0  0  0
   32.5985   60.2903   33.7820 C   0  0  0  0  0  0  0  0  0  0  0  0
   33.6056   63.2191   32.4842 N   0  0  0  0  0  0  0  0  0  0  0  0
   34.4140   63.7951   31.4172 C   0  0  2  0  0  0  0  0  0  0  0  0
   35.6290   62.9187   31.1977 C   0  0  0  0  0  0  0  0  0  0  0  0
   36.5768   62.9496   31.9828 O   0  0  0  0  0  0  0  0  0  0  0  0
   34.7773   65.1767   31.8752 C   0  0  0  0  0  0  0  0  0  0  0  0
   34.3315   65.2631   33.2964 C   0  0  0  0  0  0  0  0  0  0  0  0
   34.0165   63.8319   33.7338 C   0  0  0  0  0  0  0  0  0  0  0  0
   35.6777   62.0574   30.0830 N   0  0  0  0  0  0  0  0  0  0  0  0
   36.2785   60.7914   29.9434 C   0  0  2  0  0  0  0  0  0  0  0  0
   36.1621   60.1279   28.6419 C   0  0  0  0  0  0  0  0  0  0  0  0
   37.2020   59.5329   28.1979 O   0  0  0  0  0  0  0  0  0  0  0  0
   36.0610   59.7932   31.0455 C   0  0  0  0  0  0  0  0  0  0  0  0
   36.6990   58.5840   30.8787 O   0  0  0  0  0  0  0  0  0  0  0  0
   35.0183   60.0701   27.8068 N   0  0  0  0  0  0  0  0  0  0  0  0
   34.9893   59.2575   26.6046 C   0  0  2  0  0  0  0  0  0  0  0  0
   36.1214   59.7056   25.7067 C   0  0  0  0  0  0  0  0  0  0  0  0
   36.8848   60.5882   26.1259 O   0  0  0  0  0  0  0  0  0  0  0  0
   33.6959   59.4380   25.8974 C   0  0  0  0  0  0  0  0  0  0  0  0
   32.4439   59.0991   26.6006 C   0  0  1  0  0  0  0  0  0  0  0  0
   31.1923   59.4666   25.8368 C   0  0  0  0  0  0  0  0  0  0  0  0
   32.3259   57.6961   27.1115 C   0  0  0  0  0  0  0  0  0  0  0  0
   36.3315   59.1477   24.4139 N   0  0  0  0  0  0  0  0  0  0  0  0
   37.6277   59.1820   23.7730 C   0  0  2  0  0  0  0  0  0  0  0  0
   37.6746   58.5106   22.4689 C   0  0  0  0  0  0  0  0  0  0  0  0
   37.5931   57.2379   22.4400 O   0  0  0  0  0  0  0  0  0  0  0  0
   38.6436   58.4215   24.6635 C   0  0  0  0  0  0  0  0  0  0  0  0
   39.8780   58.3803   24.0612 O   0  0  0  0  0  0  0  0  0  0  0  0
   37.7989   59.1722   21.2242 N   0  0  0  0  0  0  0  0  0  0  0  0
   36.8054   59.0304   20.1994 C   0  0  0  0  0  0  0  0  0  0  0  0
   36.8767   57.7738   19.4489 C   0  0  0  0  0  0  0  0  0  0  0  0
   37.0320   56.6915   20.1312 O   0  0  0  0  0  0  0  0  0  0  0  0
   36.7815   57.6703   18.0416 N   0  0  0  0  0  0  0  0  0  0  0  0
   36.7958   56.3160   17.4534 C   0  0  2  0  0  0  0  0  0  0  0  0
   38.0630   55.6613   17.7381 C   0  0  0  0  0  0  0  0  0  0  0  0
   38.1843   54.3925   17.7751 O   0  0  0  0  0  0  0  0  0  0  0  0
   36.3364   56.3828   16.0333 C   0  0  0  0  0  0  0  0  0  0  0  0
   34.8852   56.2223   15.7783 C   0  0  0  0  0  0  0  0  0  0  0  0
   34.2568   54.9430   16.1816 C   0  0  0  0  0  0  0  0  0  0  0  0
   32.8074   54.8482   15.7206 C   0  0  0  0  0  0  0  0  0  0  0  0
   32.4567   56.0564   14.9688 N   0  0  0  0  0  4  0  0  0  0  0  0
   39.2397   56.3634   17.9899 O   0  0  0  0  0  0  0  0  0  0  0  0
  2  1  1  1
  2  3  1  0
  2  5  1  0
  3  4  2  0
  3  8  1  0
  5  6  1  0
  5  7  1  6
  9  8  1  6
  9 10  1  0
  9 12  1  0
 10 11  2  0
 10 15  1  0
 12 13  1  0
 12 14  1  6
 15 16  1  0
 16 17  1  0
 16 19  1  6
 17 18  2  0
 17 20  1  0
 20 21  1  0
 20 26  1  0
 21 22  1  1
 21 24  1  0
 22 23  2  0
 22 27  1  0
 24 25  1  0
 25 26  1  0
 27 28  1  0
 28 29  1  0
 28 31  1  1
 29 30  2  0
 29 33  1  0
 31 32  1  0
 33 34  1  0
 34 35  1  0
 34 37  1  6
 35 36  2  0
 35 41  1  0
 37 38  1  0
 38 39  1  6
 38 40  1  0
 41 42  1  0
 42 43  1  0
 42 45  1  1
 43 44  2  0
 43 47  1  0
 45 46  1  0
 47 48  1  0
 48 49  1  0
 49 50  2  0
 49 51  1  0
 51 52  1  0
 52 53  1  0
 52 55  1  6
 53 54  2  0
 53 60  1  0
 55 56  1  0
 56 57  1  0
 57 58  1  0
 58 59  1  0
M  CHG  2   1   1  59   1
M  END
$$$$
