
     RDKit          3D

 60 60  0  0  0  0  0  0  0  0999 V2000
   23.9027   62.9306   35.6923 N   0  0  0  0  0  4  0  0  0  0  0  0
   25.0140   63.6989   35.2217 C   0  0  2  0  0  0  0  0  0  0  0  0
   25.7855   63.1024   34.1263 C   0  0  0  0  0  0  0  0  0  0  0  0
   25.1688   62.3027   33.3681 O   0  0  0  0  0  0  0  0  0  0  0  0
   25.9734   64.0023   36.3697 C   0  0  2  0  0  0  0  0  0  0  0  0
   26.3777   62.7767   36.8921 O   0  0  0  0  0  0  0  0  0  0  0  0
   25.3072   64.8008   37.4498 C   0  0  0  0  0  0  0  0  0  0  0  0
   27.1553   63.3412   33.8448 N   0  0  0  0  0  0  0  0  0  0  0  0
   27.8238   62.6391   32.7396 C   0  0  2  0  0  0  0  0  0  0  0  0
   29.0696   62.0144   33.1874 C   0  0  0  0  0  0  0  0  0  0  0  0
   29.0441   60.7926   33.5699 O   0  0  0  0  0  0  0  0  0  0  0  0
   28.0918   63.6700   31.6480 C   0  0  2  0  0  0  0  0  0  0  0  0
   29.4510   63.9192   31.5619 O   0  0  0  0  0  0  0  0  0  0  0  0
   27.3169   64.9491   31.8527 C   0  0  0  0  0  0  0  0  0  0  0  0
   30.2851   62.7345   33.2028 N   0  0  0  0  0  0  0  0  0  0  0  0
   31.5287   62.0454   32.8184 C   0  0  2  0  0  0  0  0  0  0  0  0
   31.7029   62.1695   31.3664 C   0  0  0  0  0  0  0  0  0  0  0  0
   30.7603   61.7955   30.5940 O   0  0  0  0  0  0  0  0  0  0  0  0
   31.3233   60.5438   33.1717 C   0  0  0  0  0  0  0  0  0  0  0  0
   32.8679   62.6818   30.7553 N   0  0  0  0  0  0  0  0  0  0  0  0
   32.9757   63.2235   29.4066 C   0  0  2  0  0  0  0  0  0  0  0  0
   33.3245   62.0985   28.4551 C   0  0  0  0  0  0  0  0  0  0  0  0
   32.6056   61.1028   28.3681 O   0  0  0  0  0  0  0  0  0  0  0  0
   34.0437   64.2752   29.4688 C   0  0  0  0  0  0  0  0  0  0  0  0
   34.6598   64.1480   30.8217 C   0  0  0  0  0  0  0  0  0  0  0  0
   34.1633   62.8199   31.3949 C   0  0  0  0  0  0  0  0  0  0  0  0
   34.4843   62.1899   27.6594 N   0  0  0  0  0  0  0  0  0  0  0  0
   34.8643   61.4468   26.5251 C   0  0  2  0  0  0  0  0  0  0  0  0
   36.0892   61.8527   25.8305 C   0  0  0  0  0  0  0  0  0  0  0  0
   36.2705   63.1054   25.6562 O   0  0  0  0  0  0  0  0  0  0  0  0
   33.7959   61.1143   25.5219 C   0  0  0  0  0  0  0  0  0  0  0  0
   34.2028   60.3260   24.4683 O   0  0  0  0  0  0  0  0  0  0  0  0
   37.1076   61.0084   25.3213 N   0  0  0  0  0  0  0  0  0  0  0  0
   38.3476   60.7855   26.0417 C   0  0  2  0  0  0  0  0  0  0  0  0
   39.1570   59.7602   25.2787 C   0  0  0  0  0  0  0  0  0  0  0  0
   39.9450   59.0462   25.9165 O   0  0  0  0  0  0  0  0  0  0  0  0
   38.0606   60.2737   27.4059 C   0  0  0  0  0  0  0  0  0  0  0  0
   39.1891   59.9470   28.2985 C   0  0  1  0  0  0  0  0  0  0  0  0
   39.5842   61.0735   29.2258 C   0  0  0  0  0  0  0  0  0  0  0  0
   39.0745   58.6729   29.0776 C   0  0  0  0  0  0  0  0  0  0  0  0
   39.0380   59.5945   23.8698 N   0  0  0  0  0  0  0  0  0  0  0  0
   39.7983   58.5925   23.1556 C   0  0  2  0  0  0  0  0  0  0  0  0
   39.4611   58.4797   21.7318 C   0  0  0  0  0  0  0  0  0  0  0  0
   38.3796   59.0175   21.3214 O   0  0  0  0  0  0  0  0  0  0  0  0
   39.4837   57.2016   23.7640 C   0  0  0  0  0  0  0  0  0  0  0  0
   40.6421   56.5670   24.1431 O   0  0  0  0  0  0  0  0  0  0  0  0
   40.2538   57.8176   20.7644 N   0  0  0  0  0  0  0  0  0  0  0  0
   39.8265   57.7014   19.4001 C   0  0  0  0  0  0  0  0  0  0  0  0
   38.7789   56.7028   19.1709 C   0  0  0  0  0  0  0  0  0  0  0  0
   38.6364   55.7865   20.0660 O   0  0  0  0  0  0  0  0  0  0  0  0
   37.9190   56.6814   18.0482 N   0  0  0  0  0  0  0  0  0  0  0  0
   36.9763   55.5509   17.9308 C   0  0  2  0  0  0  0  0  0  0  0  0
   37.6655   54.3771   17.4184 C   0  0  0  0  0  0  0  0  0  0  0  0
   37.1843   53.2010   17.5236 O   0  0  0  0  0  0  0  0  0  0  0  0
   35.7359   56.0049   17.2326 C   0  0  0  0  0  0  0  0  0  0  0  0
   35.2387   55.1692   16.1140 C   0  0  0  0  0  0  0  0  0  0  0  0
   33.7787   55.1582   15.8642 C   0  0  0  0  0  0  0  0  0  0  0  0
   33.4121   54.3039   14.6567 C   0  0  0  0  0  0  0  0  0  0  0  0
   33.2239   55.1690   13.4887 N   0  0  0  0  0  4  0  0  0  0  0  0
   38.8988   54.4429   16.7735 O   0  0  0  0  0  0  0  0  0  0  0  0
  2  1  1  1
  2  3  1  0
  2  5  1  0
  3  4  2  0
  3  8  1  0
  5  6  1  0
  5  7  1  1
  9  8  1  1
  9 10  1  0
  9 12  1  0
 10 11  2  0
 10 15  1  0
 12 13  1  0
 12 14  1  1
 15 16  1  0
 16 17  1  0
 16 19  1  6
 17 18  2  0
 17 20  1  0
 20 21  1  0
 20 26  1  0
 21 22  1  6
 21 24  1  0
 22 23  2  0
 22 27  1  0
 24 25  1  0
 25 26  1  0
 27 28  1  0
 28 29  1  0
 28 31  1  6
 29 30  2  0
 29 33  1  0
 31 32  1  0
 33 34  1  0
 34 35  1  0
 34 37  1  1
 35 36  2  0
 35 41  1  0
 37 38  1  0
 38 39  1  1
 38 40  1  0
 41 42  1  0
 42 43  1  0
 42 45  1  1
 43 44  2  0
 43 47  1  0
 45 46  1  0
 47 48  1  0
 48 49  1  0
 49 50  2  0
 49 51  1  0
 51 52  1  0
 52 53  1  0
 52 55  1  6
 53 54  2  0
 53 60  1  0
 55 56  1  0
 56 57  1  0
 57 58  1  0
 58 59  1  0
M  CHG  2   1   1  59   1
M  END
$$$$
