
     RDKit          3D

 60 60  0  0  0  0  0  0  0  0999 V2000
   25.7288   66.6122   36.7427 N   0  0  0  0  0  4  0  0  0  0  0  0
   26.3681   65.3754   36.4136 C   0  0  2  0  0  0  0  0  0  0  0  0
   27.3100   65.4217   35.2905 C   0  0  0  0  0  0  0  0  0  0  0  0
   27.7847   66.5539   34.9946 O   0  0  0  0  0  0  0  0  0  0  0  0
   25.3246   64.3016   36.1160 C   0  0  2  0  0  0  0  0  0  0  0  0
   26.0021   63.0869   36.0543 O   0  0  0  0  0  0  0  0  0  0  0  0
   24.6371   64.5476   34.8064 C   0  0  0  0  0  0  0  0  0  0  0  0
   27.7321   64.3146   34.5103 N   0  0  0  0  0  0  0  0  0  0  0  0
   28.7835   64.4742   33.4951 C   0  0  2  0  0  0  0  0  0  0  0  0
   28.9920   63.2311   32.7507 C   0  0  0  0  0  0  0  0  0  0  0  0
   28.1038   62.3117   32.8247 O   0  0  0  0  0  0  0  0  0  0  0  0
   30.0552   64.8925   34.2259 C   0  0  2  0  0  0  0  0  0  0  0  0
   30.8732   63.7910   34.4114 O   0  0  0  0  0  0  0  0  0  0  0  0
   29.7719   65.5856   35.5366 C   0  0  0  0  0  0  0  0  0  0  0  0
   30.1472   63.0357   31.9613 N   0  0  0  0  0  0  0  0  0  0  0  0
   30.0076   62.4203   30.6305 C   0  0  2  0  0  0  0  0  0  0  0  0
   31.3458   62.0989   30.1208 C   0  0  0  0  0  0  0  0  0  0  0  0
   32.1803   63.0433   29.9291 O   0  0  0  0  0  0  0  0  0  0  0  0
   29.3690   63.5032   29.7132 C   0  0  0  0  0  0  0  0  0  0  0  0
   31.7786   60.7893   29.8194 N   0  0  0  0  0  0  0  0  0  0  0  0
   33.1459   60.2889   29.8850 C   0  0  2  0  0  0  0  0  0  0  0  0
   33.8093   60.5035   28.5409 C   0  0  0  0  0  0  0  0  0  0  0  0
   33.1378   60.5653   27.5109 O   0  0  0  0  0  0  0  0  0  0  0  0
   33.0368   58.8371   30.2466 C   0  0  0  0  0  0  0  0  0  0  0  0
   31.5836   58.5079   30.1683 C   0  0  0  0  0  0  0  0  0  0  0  0
   30.9170   59.6817   29.4495 C   0  0  0  0  0  0  0  0  0  0  0  0
   35.2107   60.6339   28.4658 N   0  0  0  0  0  0  0  0  0  0  0  0
   36.0422   60.8333   27.3468 C   0  0  2  0  0  0  0  0  0  0  0  0
   36.3063   59.6767   26.4864 C   0  0  0  0  0  0  0  0  0  0  0  0
   36.9064   58.6819   27.0182 O   0  0  0  0  0  0  0  0  0  0  0  0
   37.3088   61.6155   27.5522 C   0  0  0  0  0  0  0  0  0  0  0  0
   38.1460   61.6774   26.4603 O   0  0  0  0  0  0  0  0  0  0  0  0
   35.9723   59.5314   25.1166 N   0  0  0  0  0  0  0  0  0  0  0  0
   36.3407   58.3483   24.3609 C   0  0  2  0  0  0  0  0  0  0  0  0
   37.7813   58.4989   23.9243 C   0  0  0  0  0  0  0  0  0  0  0  0
   38.1672   59.6198   23.5608 O   0  0  0  0  0  0  0  0  0  0  0  0
   35.4721   58.2164   23.1636 C   0  0  0  0  0  0  0  0  0  0  0  0
   34.0114   58.1195   23.3478 C   0  0  1  0  0  0  0  0  0  0  0  0
   33.2285   58.1201   22.0547 C   0  0  0  0  0  0  0  0  0  0  0  0
   33.5235   57.0111   24.2291 C   0  0  0  0  0  0  0  0  0  0  0  0
   38.6922   57.4048   23.9220 N   0  0  0  0  0  0  0  0  0  0  0  0
   40.0586   57.5547   23.4718 C   0  0  2  0  0  0  0  0  0  0  0  0
   40.2159   57.5665   22.0128 C   0  0  0  0  0  0  0  0  0  0  0  0
   41.3436   57.9146   21.5284 O   0  0  0  0  0  0  0  0  0  0  0  0
   40.8813   56.3363   23.9640 C   0  0  0  0  0  0  0  0  0  0  0  0
   42.1705   56.4017   23.4929 O   0  0  0  0  0  0  0  0  0  0  0  0
   39.2044   57.2123   21.0887 N   0  0  0  0  0  0  0  0  0  0  0  0
   39.3922   57.3744   19.6760 C   0  0  0  0  0  0  0  0  0  0  0  0
   38.2660   56.9233   18.8542 C   0  0  0  0  0  0  0  0  0  0  0  0
   37.1709   56.6334   19.4687 O   0  0  0  0  0  0  0  0  0  0  0  0
   38.2986   56.7922   17.4463 N   0  0  0  0  0  0  0  0  0  0  0  0
   37.1146   56.2057   16.7870 C   0  0  2  0  0  0  0  0  0  0  0  0
   37.0655   54.7727   17.0313 C   0  0  0  0  0  0  0  0  0  0  0  0
   37.9758   54.1576   17.6786 O   0  0  0  0  0  0  0  0  0  0  0  0
   37.0398   56.6862   15.3743 C   0  0  0  0  0  0  0  0  0  0  0  0
   37.9307   57.8058   14.9872 C   0  0  0  0  0  0  0  0  0  0  0  0
   37.2927   59.0549   14.5110 C   0  0  0  0  0  0  0  0  0  0  0  0
   38.3217   60.1033   14.1056 C   0  0  0  0  0  0  0  0  0  0  0  0
   39.0300   59.6501   12.9052 N   0  0  0  0  0  4  0  0  0  0  0  0
   36.0253   53.9619   16.5822 O   0  0  0  0  0  0  0  0  0  0  0  0
  2  1  1  6
  2  3  1  0
  2  5  1  0
  3  4  2  0
  3  8  1  0
  5  6  1  0
  5  7  1  6
  9  8  1  1
  9 10  1  0
  9 12  1  0
 10 11  2  0
 10 15  1  0
 12 13  1  0
 12 14  1  1
 15 16  1  0
 16 17  1  0
 16 19  1  6
 17 18  2  0
 17 20  1  0
 20 21  1  0
 20 26  1  0
 21 22  1  6
 21 24  1  0
 22 23  2  0
 22 27  1  0
 24 25  1  0
 25 26  1  0
 27 28  1  0
 28 29  1  0
 28 31  1  1
 29 30  2  0
 29 33  1  0
 31 32  1  0
 33 34  1  0
 34 35  1  0
 34 37  1  6
 35 36  2  0
 35 41  1  0
 37 38  1  0
 38 39  1  6
 38 40  1  0
 41 42  1  0
 42 43  1  0
 42 45  1  1
 43 44  2  0
 43 47  1  0
 45 46  1  0
 47 48  1  0
 48 49  1  0
 49 50  2  0
 49 51  1  0
 51 52  1  0
 52 53  1  0
 52 55  1  6
 53 54  2  0
 53 60  1  0
 55 56  1  0
 56 57  1  0
 57 58  1  0
 58 59  1  0
M  CHG  2   1   1  59   1
M  END
$$$$
