
     RDKit          3D

 60 60  0  0  0  0  0  0  0  0999 V2000
   24.5796   63.0603   36.0558 N   0  0  0  0  0  4  0  0  0  0  0  0
   25.8295   63.5627   35.5742 C   0  0  2  0  0  0  0  0  0  0  0  0
   26.4742   62.7702   34.5219 C   0  0  0  0  0  0  0  0  0  0  0  0
   26.3127   61.5189   34.5749 O   0  0  0  0  0  0  0  0  0  0  0  0
   26.8185   63.7178   36.7268 C   0  0  2  0  0  0  0  0  0  0  0  0
   26.4424   64.8590   37.4301 O   0  0  0  0  0  0  0  0  0  0  0  0
   28.2231   63.8876   36.2302 C   0  0  0  0  0  0  0  0  0  0  0  0
   27.2595   63.2808   33.4565 N   0  0  0  0  0  0  0  0  0  0  0  0
   27.6935   62.4018   32.3609 C   0  0  2  0  0  0  0  0  0  0  0  0
   28.9473   61.7232   32.6933 C   0  0  0  0  0  0  0  0  0  0  0  0
   29.6536   62.1726   33.6624 O   0  0  0  0  0  0  0  0  0  0  0  0
   27.8576   63.2750   31.1212 C   0  0  2  0  0  0  0  0  0  0  0  0
   28.6170   64.3905   31.4306 O   0  0  0  0  0  0  0  0  0  0  0  0
   26.5358   63.6704   30.5089 C   0  0  0  0  0  0  0  0  0  0  0  0
   29.3825   60.5925   31.9668 N   0  0  0  0  0  0  0  0  0  0  0  0
   30.6845   59.9884   32.2973 C   0  0  2  0  0  0  0  0  0  0  0  0
   31.7423   60.9568   31.9856 C   0  0  0  0  0  0  0  0  0  0  0  0
   31.5515   61.8062   31.0545 O   0  0  0  0  0  0  0  0  0  0  0  0
   30.8436   58.7546   31.3624 C   0  0  0  0  0  0  0  0  0  0  0  0
   32.9825   61.0099   32.6582 N   0  0  0  0  0  0  0  0  0  0  0  0
   34.1224   61.8505   32.3147 C   0  0  2  0  0  0  0  0  0  0  0  0
   35.0109   61.0970   31.3475 C   0  0  0  0  0  0  0  0  0  0  0  0
   35.7517   60.1974   31.7443 O   0  0  0  0  0  0  0  0  0  0  0  0
   34.8138   62.1572   33.6103 C   0  0  0  0  0  0  0  0  0  0  0  0
   34.1543   61.2969   34.6354 C   0  0  0  0  0  0  0  0  0  0  0  0
   33.3194   60.2745   33.8631 C   0  0  0  0  0  0  0  0  0  0  0  0
   34.9913   61.4276   29.9774 N   0  0  0  0  0  0  0  0  0  0  0  0
   35.7800   60.9398   28.9176 C   0  0  2  0  0  0  0  0  0  0  0  0
   35.3124   61.1979   27.5529 C   0  0  0  0  0  0  0  0  0  0  0  0
   34.3361   62.0108   27.4171 O   0  0  0  0  0  0  0  0  0  0  0  0
   36.2917   59.5308   29.0230 C   0  0  0  0  0  0  0  0  0  0  0  0
   36.1021   58.7505   27.9040 O   0  0  0  0  0  0  0  0  0  0  0  0
   35.8208   60.6431   26.3517 N   0  0  0  0  0  0  0  0  0  0  0  0
   35.5048   61.2101   25.0536 C   0  0  2  0  0  0  0  0  0  0  0  0
   36.2793   60.4434   24.0044 C   0  0  0  0  0  0  0  0  0  0  0  0
   37.2086   59.7141   24.3814 O   0  0  0  0  0  0  0  0  0  0  0  0
   35.8991   62.6413   25.0120 C   0  0  0  0  0  0  0  0  0  0  0  0
   36.7564   63.1144   23.9083 C   0  0  1  0  0  0  0  0  0  0  0  0
   36.2493   62.7412   22.5340 C   0  0  0  0  0  0  0  0  0  0  0  0
   37.1282   64.5652   23.9288 C   0  0  0  0  0  0  0  0  0  0  0  0
   35.9726   60.5339   22.6171 N   0  0  0  0  0  0  0  0  0  0  0  0
   35.3338   59.4473   21.9076 C   0  0  2  0  0  0  0  0  0  0  0  0
   34.8915   59.7893   20.5508 C   0  0  0  0  0  0  0  0  0  0  0  0
   33.7162   60.2615   20.3982 O   0  0  0  0  0  0  0  0  0  0  0  0
   34.0457   59.0440   22.6703 C   0  0  0  0  0  0  0  0  0  0  0  0
   33.4930   57.9124   22.1206 O   0  0  0  0  0  0  0  0  0  0  0  0
   35.6777   59.6402   19.3837 N   0  0  0  0  0  0  0  0  0  0  0  0
   36.7917   58.7377   19.3428 C   0  0  0  0  0  0  0  0  0  0  0  0
   36.9539   58.0242   18.0732 C   0  0  0  0  0  0  0  0  0  0  0  0
   36.8194   58.7131   16.9922 O   0  0  0  0  0  0  0  0  0  0  0  0
   37.2509   56.6464   17.9563 N   0  0  0  0  0  0  0  0  0  0  0  0
   37.2489   56.0593   16.6014 C   0  0  2  0  0  0  0  0  0  0  0  0
   37.5458   54.6373   16.6729 C   0  0  0  0  0  0  0  0  0  0  0  0
   37.9202   53.9647   15.6564 O   0  0  0  0  0  0  0  0  0  0  0  0
   38.0700   56.9092   15.6872 C   0  0  0  0  0  0  0  0  0  0  0  0
   39.2425   57.6026   16.2712 C   0  0  0  0  0  0  0  0  0  0  0  0
   40.5865   57.1706   15.8226 C   0  0  0  0  0  0  0  0  0  0  0  0
   41.0776   55.9465   16.5860 C   0  0  0  0  0  0  0  0  0  0  0  0
   42.1221   55.2751   15.8073 N   0  0  0  0  0  4  0  0  0  0  0  0
   37.4473   53.9002   17.8511 O   0  0  0  0  0  0  0  0  0  0  0  0
  2  1  1  1
  2  3  1  0
  2  5  1  0
  3  4  2  0
  3  8  1  0
  5  6  1  0
  5  7  1  6
  9  8  1  1
  9 10  1  0
  9 12  1  0
 10 11  2  0
 10 15  1  0
 12 13  1  0
 12 14  1  1
 15 16  1  0
 16 17  1  0
 16 19  1  6
 17 18  2  0
 17 20  1  0
 20 21  1  0
 20 26  1  0
 21 22  1  6
 21 24  1  0
 22 23  2  0
 22 27  1  0
 24 25  1  0
 25 26  1  0
 27 28  1  0
 28 29  1  0
 28 31  1  1
 29 30  2  0
 29 33  1  0
 31 32  1  0
 33 34  1  0
 34 35  1  0
 34 37  1  1
 35 36  2  0
 35 41  1  0
 37 38  1  0
 38 39  1  6
 38 40  1  0
 41 42  1  0
 42 43  1  0
 42 45  1  1
 43 44  2  0
 43 47  1  0
 45 46  1  0
 47 48  1  0
 48 49  1  0
 49 50  2  0
 49 51  1  0
 51 52  1  0
 52 53  1  0
 52 55  1  6
 53 54  2  0
 53 60  1  0
 55 56  1  0
 56 57  1  0
 57 58  1  0
 58 59  1  0
M  CHG  2   1   1  59   1
M  END
$$$$
