
     RDKit          3D

 60 60  0  0  0  0  0  0  0  0999 V2000
   25.3706   64.3513   35.2317 N   0  0  0  0  0  4  0  0  0  0  0  0
   26.4503   63.4128   35.2347 C   0  0  2  0  0  0  0  0  0  0  0  0
   27.6288   63.7917   34.4483 C   0  0  0  0  0  0  0  0  0  0  0  0
   27.5347   64.8441   33.7566 O   0  0  0  0  0  0  0  0  0  0  0  0
   25.9694   62.0492   34.7449 C   0  0  2  0  0  0  0  0  0  0  0  0
   27.0136   61.1531   34.9573 O   0  0  0  0  0  0  0  0  0  0  0  0
   25.6333   62.0743   33.2839 C   0  0  0  0  0  0  0  0  0  0  0  0
   28.8577   63.0850   34.3946 N   0  0  0  0  0  0  0  0  0  0  0  0
   29.9568   63.5621   33.5426 C   0  0  2  0  0  0  0  0  0  0  0  0
   30.0531   62.7729   32.3136 C   0  0  0  0  0  0  0  0  0  0  0  0
   29.0920   61.9825   32.0114 O   0  0  0  0  0  0  0  0  0  0  0  0
   31.2394   63.4563   34.3611 C   0  0  2  0  0  0  0  0  0  0  0  0
   32.0914   62.5324   33.7802 O   0  0  0  0  0  0  0  0  0  0  0  0
   30.9794   63.1199   35.8094 C   0  0  0  0  0  0  0  0  0  0  0  0
   31.1799   62.8711   31.4670 N   0  0  0  0  0  0  0  0  0  0  0  0
   31.1677   62.1624   30.1760 C   0  0  2  0  0  0  0  0  0  0  0  0
   31.7635   60.8346   30.3654 C   0  0  0  0  0  0  0  0  0  0  0  0
   31.0349   59.8837   30.8012 O   0  0  0  0  0  0  0  0  0  0  0  0
   32.0748   62.9862   29.2168 C   0  0  0  0  0  0  0  0  0  0  0  0
   33.1164   60.5342   30.0956 N   0  0  0  0  0  0  0  0  0  0  0  0
   34.1757   61.4891   29.7953 C   0  0  2  0  0  0  0  0  0  0  0  0
   34.2287   61.7044   28.2975 C   0  0  0  0  0  0  0  0  0  0  0  0
   33.7233   62.7046   27.7876 O   0  0  0  0  0  0  0  0  0  0  0  0
   35.4392   60.8862   30.3341 C   0  0  0  0  0  0  0  0  0  0  0  0
   35.0832   59.4959   30.7422 C   0  0  0  0  0  0  0  0  0  0  0  0
   33.7092   59.2102   30.1346 C   0  0  0  0  0  0  0  0  0  0  0  0
   34.8630   60.7507   27.4760 N   0  0  0  0  0  0  0  0  0  0  0  0
   35.3890   60.8827   26.1763 C   0  0  2  0  0  0  0  0  0  0  0  0
   36.0856   59.7252   25.6084 C   0  0  0  0  0  0  0  0  0  0  0  0
   36.9408   59.1381   26.3544 O   0  0  0  0  0  0  0  0  0  0  0  0
   36.1471   62.1405   25.8576 C   0  0  0  0  0  0  0  0  0  0  0  0
   36.5242   62.2826   24.5405 O   0  0  0  0  0  0  0  0  0  0  0  0
   35.9216   59.1753   24.3123 N   0  0  0  0  0  0  0  0  0  0  0  0
   35.0019   58.0822   24.0559 C   0  0  2  0  0  0  0  0  0  0  0  0
   35.0484   57.7655   22.5774 C   0  0  0  0  0  0  0  0  0  0  0  0
   35.6126   56.7201   22.2217 O   0  0  0  0  0  0  0  0  0  0  0  0
   33.6213   58.4775   24.4340 C   0  0  0  0  0  0  0  0  0  0  0  0
   32.9743   57.8073   25.5782 C   0  0  1  0  0  0  0  0  0  0  0  0
   31.6764   57.1149   25.2301 C   0  0  0  0  0  0  0  0  0  0  0  0
   33.8358   56.8830   26.3826 C   0  0  0  0  0  0  0  0  0  0  0  0
   34.4686   58.6216   21.5989 N   0  0  0  0  0  0  0  0  0  0  0  0
   34.6929   58.4203   20.1843 C   0  0  2  0  0  0  0  0  0  0  0  0
   36.1079   58.3544   19.8005 C   0  0  0  0  0  0  0  0  0  0  0  0
   36.9106   57.7119   20.5557 O   0  0  0  0  0  0  0  0  0  0  0  0
   34.1135   59.6326   19.4108 C   0  0  0  0  0  0  0  0  0  0  0  0
   34.3013   59.4774   18.0585 O   0  0  0  0  0  0  0  0  0  0  0  0
   36.6586   58.9500   18.6410 N   0  0  0  0  0  0  0  0  0  0  0  0
   37.8548   58.4409   18.0351 C   0  0  0  0  0  0  0  0  0  0  0  0
   39.0885   58.7538   18.7612 C   0  0  0  0  0  0  0  0  0  0  0  0
   39.3534   58.0406   19.8015 O   0  0  0  0  0  0  0  0  0  0  0  0
   40.0009   59.7712   18.3969 N   0  0  0  0  0  0  0  0  0  0  0  0
   41.3493   59.7270   18.9974 C   0  0  2  0  0  0  0  0  0  0  0  0
   41.2565   59.8557   20.4431 C   0  0  0  0  0  0  0  0  0  0  0  0
   42.2689   59.7274   21.2077 O   0  0  0  0  0  0  0  0  0  0  0  0
   42.2556   60.6583   18.2601 C   0  0  0  0  0  0  0  0  0  0  0  0
   42.0278   62.1124   18.4358 C   0  0  0  0  0  0  0  0  0  0  0  0
   41.5447   62.8762   17.2622 C   0  0  0  0  0  0  0  0  0  0  0  0
   41.2733   64.3364   17.6033 C   0  0  0  0  0  0  0  0  0  0  0  0
   39.9133   64.6883   17.1852 N   0  0  0  0  0  4  0  0  0  0  0  0
   40.0616   60.1298   21.1051 O   0  0  0  0  0  0  0  0  0  0  0  0
  2  1  1  6
  2  3  1  0
  2  5  1  0
  3  4  2  0
  3  8  1  0
  5  6  1  0
  5  7  1  6
  9  8  1  1
  9 10  1  0
  9 12  1  0
 10 11  2  0
 10 15  1  0
 12 13  1  0
 12 14  1  1
 15 16  1  0
 16 17  1  0
 16 19  1  6
 17 18  2  0
 17 20  1  0
 20 21  1  0
 20 26  1  0
 21 22  1  6
 21 24  1  0
 22 23  2  0
 22 27  1  0
 24 25  1  0
 25 26  1  0
 27 28  1  0
 28 29  1  0
 28 31  1  1
 29 30  2  0
 29 33  1  0
 31 32  1  0
 33 34  1  0
 34 35  1  0
 34 37  1  6
 35 36  2  0
 35 41  1  0
 37 38  1  0
 38 39  1  6
 38 40  1  0
 41 42  1  0
 42 43  1  0
 42 45  1  6
 43 44  2  0
 43 47  1  0
 45 46  1  0
 47 48  1  0
 48 49  1  0
 49 50  2  0
 49 51  1  0
 51 52  1  0
 52 53  1  0
 52 55  1  6
 53 54  2  0
 53 60  1  0
 55 56  1  0
 56 57  1  0
 57 58  1  0
 58 59  1  0
M  CHG  2   1   1  59   1
M  END
$$$$
