
     RDKit          3D

 33 36  0  0  0  0  0  0  0  0999 V2000
  -31.5868   42.3534    7.7527 C   0  0  0  0  0  0  0  0  0  0  0  0
  -27.6711   45.6421   10.2770 C   0  0  0  0  0  0  0  0  0  0  0  0
  -30.7123   39.5839    5.1795 C   0  0  0  0  0  0  0  0  0  0  0  0
  -30.2479   40.7893    5.7619 N   0  0  0  0  0  0  0  0  0  0  0  0
  -28.9753   41.2243    5.2585 C   0  0  0  0  0  0  0  0  0  0  0  0
  -31.3329   42.0319    6.0543 S   0  0  1  0  0  6  0  0  0  0  0  0
  -32.6898   41.6891    5.4398 O   0  0  0  0  0  0  0  0  0  0  0  0
  -30.8353   43.3036    5.3915 O   0  0  0  0  0  0  0  0  0  0  0  0
  -30.6359   43.1485    8.4377 C   0  0  0  0  0  0  0  0  0  0  0  0
  -30.7204   43.3994    9.7725 C   0  0  0  0  0  0  0  0  0  0  0  0
  -29.7721   44.1939   10.4622 N   0  0  0  0  0  0  0  0  0  0  0  0
  -28.4695   44.4631    9.9375 C   0  0  0  0  0  0  0  0  0  0  0  0
  -28.0009   43.6251    9.1391 O   0  0  0  0  0  0  0  0  0  0  0  0
  -28.1715   46.8676    9.7469 N   0  0  0  0  0  0  0  0  0  0  0  0
  -28.2164   47.2281    8.3840 C   0  0  0  0  0  0  0  0  0  0  0  0
  -27.8272   46.5460    7.3733 O   0  0  0  0  0  0  0  0  0  0  0  0
  -28.7896   48.5277    8.3243 N   0  0  0  0  0  0  0  0  0  0  0  0
  -28.7986   49.1210    9.6493 C   0  0  2  0  0  0  0  0  0  0  0  0
  -30.0972   49.8265    9.9094 C   0  0  0  0  0  0  0  0  0  0  0  0
  -30.1822   50.4305   11.2639 C   0  0  0  0  0  0  0  0  0  0  0  0
  -28.9442   51.0755   11.7808 C   0  0  0  0  0  0  0  0  0  0  0  0
  -27.7793   50.9853   10.8672 C   0  0  0  0  0  0  0  0  0  0  0  0
  -26.7474   51.8597   11.0487 C   0  0  0  0  0  0  0  0  0  0  0  0
  -25.6147   51.8679   10.2604 C   0  0  0  0  0  0  0  0  0  0  0  0
  -25.5192   50.9488    9.2395 C   0  0  0  0  0  0  0  0  0  0  0  0
  -26.5757   50.0587    9.0589 C   0  0  0  0  0  0  0  0  0  0  0  0
  -27.6959   50.0635    9.8519 C   0  0  0  0  0  0  0  0  0  0  0  0
  -28.7110   47.9330   10.5191 C   0  0  0  0  0  0  0  0  0  0  0  0
  -29.0629   47.8882   11.7489 O   0  0  0  0  0  0  0  0  0  0  0  0
  -31.7834   42.8431   10.4503 C   0  0  0  0  0  0  0  0  0  0  0  0
  -32.7273   42.0662    9.8182 C   0  0  0  0  0  0  0  0  0  0  0  0
  -32.6253   41.8199    8.4455 C   0  0  0  0  0  0  0  0  0  0  0  0
  -33.8872   40.8915    7.6385 Cl  0  0  0  0  0  0  0  0  0  0  0  0
  1  6  1  0
  9  1  2  0
  1 32  1  0
 12  2  1  0
  2 14  1  0
  4  3  1  0
  4  5  1  0
  6  4  1  1
  6  7  2  0
  6  8  2  0
 10  9  1  0
 11 10  1  0
 10 30  2  0
 11 12  1  0
 12 13  2  0
 14 15  1  0
 14 28  1  0
 15 16  2  0
 15 17  1  0
 17 18  1  0
 18 19  1  1
 18 27  1  0
 18 28  1  0
 19 20  1  0
 20 21  1  0
 21 22  1  0
 22 23  2  0
 22 27  1  0
 23 24  1  0
 24 25  2  0
 25 26  1  0
 26 27  2  0
 28 29  2  0
 30 31  1  0
 31 32  2  0
 32 33  1  0
M  END
$$$$
