
     RDKit          3D

 33 36  0  0  0  0  0  0  0  0999 V2000
  -31.4301   49.0514   12.3788 C   0  0  0  0  0  0  0  0  0  0  0  0
  -29.2737   43.4746   11.6785 C   0  0  0  0  0  0  0  0  0  0  0  0
  -31.2207   49.3699    8.9551 C   0  0  0  0  0  0  0  0  0  0  0  0
  -31.7074   50.3587    9.8457 N   0  0  0  0  0  0  0  0  0  0  0  0
  -33.1283   50.5545    9.7753 C   0  0  0  0  0  0  0  0  0  0  0  0
  -31.0765   50.4512   11.3951 S   0  0  1  0  0  6  0  0  0  0  0  0
  -31.6433   51.6764   12.1119 O   0  0  0  0  0  0  0  0  0  0  0  0
  -29.5699   50.6189   11.3179 O   0  0  0  0  0  0  0  0  0  0  0  0
  -30.5811   47.9227   12.2749 C   0  0  0  0  0  0  0  0  0  0  0  0
  -30.8150   46.7684   12.9566 C   0  0  0  0  0  0  0  0  0  0  0  0
  -29.9690   45.6369   12.8562 N   0  0  0  0  0  0  0  0  0  0  0  0
  -30.1830   44.6014   11.8937 C   0  0  0  0  0  0  0  0  0  0  0  0
  -31.2194   44.6825   11.2019 O   0  0  0  0  0  0  0  0  0  0  0  0
  -27.9236   43.8473   11.4111 N   0  0  0  0  0  0  0  0  0  0  0  0
  -26.9789   44.2903   12.3601 C   0  0  0  0  0  0  0  0  0  0  0  0
  -27.1380   44.4435   13.6209 O   0  0  0  0  0  0  0  0  0  0  0  0
  -25.7751   44.5467   11.6487 N   0  0  0  0  0  0  0  0  0  0  0  0
  -26.0473   44.5884   10.2233 C   0  0  2  0  0  0  0  0  0  0  0  0
  -24.9804   43.8652    9.4548 C   0  0  0  0  0  0  0  0  0  0  0  0
  -25.2173   43.8450    7.9884 C   0  0  0  0  0  0  0  0  0  0  0  0
  -25.7577   45.0949    7.3871 C   0  0  0  0  0  0  0  0  0  0  0  0
  -26.0191   46.1808    8.3628 C   0  0  0  0  0  0  0  0  0  0  0  0
  -26.1244   47.4581    7.8943 C   0  0  0  0  0  0  0  0  0  0  0  0
  -26.3661   48.5457    8.7087 C   0  0  0  0  0  0  0  0  0  0  0  0
  -26.5083   48.3333   10.0618 C   0  0  0  0  0  0  0  0  0  0  0  0
  -26.3997   47.0272   10.5345 C   0  0  0  0  0  0  0  0  0  0  0  0
  -26.1590   45.9560    9.7110 C   0  0  0  0  0  0  0  0  0  0  0  0
  -27.3093   43.8306   10.1286 C   0  0  0  0  0  0  0  0  0  0  0  0
  -27.7559   43.2653    9.0707 O   0  0  0  0  0  0  0  0  0  0  0  0
  -31.9280   46.7325   13.7682 C   0  0  0  0  0  0  0  0  0  0  0  0
  -32.7750   47.8098   13.8951 C   0  0  0  0  0  0  0  0  0  0  0  0
  -32.5185   48.9886   13.1879 C   0  0  0  0  0  0  0  0  0  0  0  0
  -33.5676   50.3844   13.4260 Cl  0  0  0  0  0  0  0  0  0  0  0  0
  1  6  1  0
  9  1  2  0
  1 32  1  0
 12  2  1  0
  2 14  1  0
  4  3  1  0
  4  5  1  0
  6  4  1  6
  6  7  2  0
  6  8  2  0
 10  9  1  0
 11 10  1  0
 10 30  2  0
 11 12  1  0
 12 13  2  0
 14 15  1  0
 14 28  1  0
 15 16  2  0
 15 17  1  0
 17 18  1  0
 18 19  1  6
 18 27  1  0
 18 28  1  0
 19 20  1  0
 20 21  1  0
 21 22  1  0
 22 23  2  0
 22 27  1  0
 23 24  1  0
 24 25  2  0
 25 26  1  0
 26 27  2  0
 28 29  2  0
 30 31  1  0
 31 32  2  0
 32 33  1  0
M  END
$$$$
