
     RDKit          3D

 33 36  0  0  0  0  0  0  0  0999 V2000
  -26.8608   50.4341    8.5027 C   0  0  0  0  0  0  0  0  0  0  0  0
  -27.9595   46.3607   12.6065 C   0  0  0  0  0  0  0  0  0  0  0  0
  -28.9824   52.5943    6.7286 C   0  0  0  0  0  0  0  0  0  0  0  0
  -28.8129   52.4967    8.1320 N   0  0  0  0  0  0  0  0  0  0  0  0
  -29.9112   51.8635    8.8066 C   0  0  0  0  0  0  0  0  0  0  0  0
  -27.3068   52.1047    8.7525 S   0  0  1  0  0  6  0  0  0  0  0  0
  -27.2823   52.3708   10.2574 O   0  0  0  0  0  0  0  0  0  0  0  0
  -26.2510   52.9872    8.1116 O   0  0  0  0  0  0  0  0  0  0  0  0
  -27.3578   49.4617    9.4044 C   0  0  0  0  0  0  0  0  0  0  0  0
  -27.0139   48.1476    9.3229 C   0  0  0  0  0  0  0  0  0  0  0  0
  -27.5082   47.1712   10.2221 N   0  0  0  0  0  0  0  0  0  0  0  0
  -27.5032   47.3604   11.6394 C   0  0  0  0  0  0  0  0  0  0  0  0
  -27.0778   48.4570   12.0587 O   0  0  0  0  0  0  0  0  0  0  0  0
  -28.3335   45.1103   12.0323 N   0  0  0  0  0  0  0  0  0  0  0  0
  -27.4529   44.1087   11.5730 C   0  0  0  0  0  0  0  0  0  0  0  0
  -26.1730   44.1190   11.5786 O   0  0  0  0  0  0  0  0  0  0  0  0
  -28.2619   43.0466   11.0850 N   0  0  0  0  0  0  0  0  0  0  0  0
  -29.6303   43.5052   10.9266 C   0  0  2  0  0  0  0  0  0  0  0  0
  -30.6002   42.4700   11.4156 C   0  0  0  0  0  0  0  0  0  0  0  0
  -32.0206   42.8920   11.3092 C   0  0  0  0  0  0  0  0  0  0  0  0
  -32.3969   43.6494   10.0843 C   0  0  0  0  0  0  0  0  0  0  0  0
  -31.2713   43.9073    9.1536 C   0  0  0  0  0  0  0  0  0  0  0  0
  -31.5637   44.2225    7.8585 C   0  0  0  0  0  0  0  0  0  0  0  0
  -30.5992   44.4822    6.9063 C   0  0  0  0  0  0  0  0  0  0  0  0
  -29.2752   44.4208    7.2798 C   0  0  0  0  0  0  0  0  0  0  0  0
  -28.9826   44.0986    8.6033 C   0  0  0  0  0  0  0  0  0  0  0  0
  -29.9540   43.8429    9.5386 C   0  0  0  0  0  0  0  0  0  0  0  0
  -29.6707   44.6707   11.8297 C   0  0  0  0  0  0  0  0  0  0  0  0
  -30.7313   45.1817   12.3319 O   0  0  0  0  0  0  0  0  0  0  0  0
  -26.1483   47.7861    8.3136 C   0  0  0  0  0  0  0  0  0  0  0  0
  -25.6459   48.7027    7.4184 C   0  0  0  0  0  0  0  0  0  0  0  0
  -26.0111   50.0490    7.5164 C   0  0  0  0  0  0  0  0  0  0  0  0
  -25.4230   51.1933    6.3122 Cl  0  0  0  0  0  0  0  0  0  0  0  0
  1  6  1  0
  9  1  2  0
  1 32  1  0
 12  2  1  0
  2 14  1  0
  4  3  1  0
  4  5  1  0
  6  4  1  6
  6  7  2  0
  6  8  2  0
 10  9  1  0
 11 10  1  0
 10 30  2  0
 11 12  1  0
 12 13  2  0
 14 15  1  0
 14 28  1  0
 15 16  2  0
 15 17  1  0
 17 18  1  0
 18 19  1  1
 18 27  1  0
 18 28  1  0
 19 20  1  0
 20 21  1  0
 21 22  1  0
 22 23  2  0
 22 27  1  0
 23 24  1  0
 24 25  2  0
 25 26  1  0
 26 27  2  0
 28 29  2  0
 30 31  1  0
 31 32  2  0
 32 33  1  0
M  END
$$$$
