
     RDKit          3D

 33 36  0  0  0  0  0  0  0  0999 V2000
  -32.6747   43.7479    7.2381 C   0  0  0  0  0  0  0  0  0  0  0  0
  -28.3293   43.4996   10.7454 C   0  0  0  0  0  0  0  0  0  0  0  0
  -34.6600   40.7494    6.8109 C   0  0  0  0  0  0  0  0  0  0  0  0
  -34.6226   41.7334    7.8297 N   0  0  0  0  0  0  0  0  0  0  0  0
  -33.9339   41.3131    9.0176 C   0  0  0  0  0  0  0  0  0  0  0  0
  -34.3633   43.3359    7.4152 S   0  0  1  0  0  6  0  0  0  0  0  0
  -34.9529   44.2499    8.4891 O   0  0  0  0  0  0  0  0  0  0  0  0
  -35.0742   43.6415    6.1094 O   0  0  0  0  0  0  0  0  0  0  0  0
  -31.9630   44.1819    8.3830 C   0  0  0  0  0  0  0  0  0  0  0  0
  -30.6633   44.5808    8.3265 C   0  0  0  0  0  0  0  0  0  0  0  0
  -29.9471   45.0156    9.4686 N   0  0  0  0  0  0  0  0  0  0  0  0
  -29.6311   44.1415   10.5552 C   0  0  0  0  0  0  0  0  0  0  0  0
  -30.5389   43.9250   11.3848 O   0  0  0  0  0  0  0  0  0  0  0  0
  -27.2530   44.4044   10.9823 N   0  0  0  0  0  0  0  0  0  0  0  0
  -26.8037   44.8517   12.2422 C   0  0  0  0  0  0  0  0  0  0  0  0
  -27.2593   44.5441   13.3982 O   0  0  0  0  0  0  0  0  0  0  0  0
  -25.7176   45.7358   11.9979 N   0  0  0  0  0  0  0  0  0  0  0  0
  -25.6932   46.1064   10.5944 C   0  0  2  0  0  0  0  0  0  0  0  0
  -24.2894   46.0967   10.0642 C   0  0  0  0  0  0  0  0  0  0  0  0
  -24.1990   46.4384    8.6213 C   0  0  0  0  0  0  0  0  0  0  0  0
  -25.0990   47.5215    8.1390 C   0  0  0  0  0  0  0  0  0  0  0  0
  -25.9942   48.0828    9.1798 C   0  0  0  0  0  0  0  0  0  0  0  0
  -26.5504   49.3093    8.9598 C   0  0  0  0  0  0  0  0  0  0  0  0
  -27.3971   49.9285    9.8566 C   0  0  0  0  0  0  0  0  0  0  0  0
  -27.6968   49.2777   11.0325 C   0  0  0  0  0  0  0  0  0  0  0  0
  -27.1261   48.0257   11.2517 C   0  0  0  0  0  0  0  0  0  0  0  0
  -26.2856   47.4234   10.3493 C   0  0  0  0  0  0  0  0  0  0  0  0
  -26.4528   45.0058    9.9722 C   0  0  0  0  0  0  0  0  0  0  0  0
  -26.3899   44.6671    8.7394 O   0  0  0  0  0  0  0  0  0  0  0  0
  -30.0490   44.5481    7.0935 C   0  0  0  0  0  0  0  0  0  0  0  0
  -30.7081   44.1315    5.9595 C   0  0  0  0  0  0  0  0  0  0  0  0
  -32.0435   43.7238    6.0363 C   0  0  0  0  0  0  0  0  0  0  0  0
  -32.8458   43.1162    4.5897 Cl  0  0  0  0  0  0  0  0  0  0  0  0
  1  6  1  0
  9  1  2  0
  1 32  1  0
 12  2  1  0
  2 14  1  0
  4  3  1  0
  4  5  1  0
  6  4  1  1
  6  7  2  0
  6  8  2  0
 10  9  1  0
 11 10  1  0
 10 30  2  0
 11 12  1  0
 12 13  2  0
 14 15  1  0
 14 28  1  0
 15 16  2  0
 15 17  1  0
 17 18  1  0
 18 19  1  6
 18 27  1  0
 18 28  1  0
 19 20  1  0
 20 21  1  0
 21 22  1  0
 22 23  2  0
 22 27  1  0
 23 24  1  0
 24 25  2  0
 25 26  1  0
 26 27  2  0
 28 29  2  0
 30 31  1  0
 31 32  2  0
 32 33  1  0
M  END
$$$$
