
     RDKit          3D

 33 36  0  0  0  0  0  0  0  0999 V2000
  -28.8830   50.6336    7.5456 C   0  0  0  0  0  0  0  0  0  0  0  0
  -27.0244   46.1468   11.4750 C   0  0  0  0  0  0  0  0  0  0  0  0
  -30.4602   50.3985    4.8370 C   0  0  0  0  0  0  0  0  0  0  0  0
  -29.0334   50.6138    4.7053 N   0  0  0  0  0  0  0  0  0  0  0  0
  -28.3636   49.3433    4.6326 C   0  0  0  0  0  0  0  0  0  0  0  0
  -28.5114   51.5262    6.0813 S   0  0  1  0  0  6  0  0  0  0  0  0
  -29.2565   52.8353    6.1125 O   0  0  0  0  0  0  0  0  0  0  0  0
  -27.0551   51.8033    6.0674 O   0  0  0  0  0  0  0  0  0  0  0  0
  -28.0399   49.5980    7.9802 C   0  0  0  0  0  0  0  0  0  0  0  0
  -28.3173   48.8958    9.1187 C   0  0  0  0  0  0  0  0  0  0  0  0
  -27.5603   47.8450    9.6588 N   0  0  0  0  0  0  0  0  0  0  0  0
  -27.3750   47.5289   11.0261 C   0  0  0  0  0  0  0  0  0  0  0  0
  -27.5093   48.4333   11.8755 O   0  0  0  0  0  0  0  0  0  0  0  0
  -28.0722   45.2071   11.1210 N   0  0  0  0  0  0  0  0  0  0  0  0
  -28.1567   44.4627    9.8960 C   0  0  0  0  0  0  0  0  0  0  0  0
  -27.3002   44.5531    8.9708 O   0  0  0  0  0  0  0  0  0  0  0  0
  -29.3199   43.6517    9.9206 N   0  0  0  0  0  0  0  0  0  0  0  0
  -29.7626   43.5685   11.2698 C   0  0  2  0  0  0  0  0  0  0  0  0
  -29.0492   42.4060   11.9476 C   0  0  0  0  0  0  0  0  0  0  0  0
  -29.6302   42.1751   13.3127 C   0  0  0  0  0  0  0  0  0  0  0  0
  -31.0486   41.6805   13.1967 C   0  0  0  0  0  0  0  0  0  0  0  0
  -31.8235   42.5829   12.3052 C   0  0  0  0  0  0  0  0  0  0  0  0
  -33.2125   42.4998   12.4184 C   0  0  0  0  0  0  0  0  0  0  0  0
  -33.9998   43.2990   11.6312 C   0  0  0  0  0  0  0  0  0  0  0  0
  -33.4205   44.1591   10.7535 C   0  0  0  0  0  0  0  0  0  0  0  0
  -32.0506   44.2331   10.6498 C   0  0  0  0  0  0  0  0  0  0  0  0
  -31.2296   43.4557   11.4145 C   0  0  0  0  0  0  0  0  0  0  0  0
  -29.2149   44.8127   11.8641 C   0  0  0  0  0  0  0  0  0  0  0  0
  -29.6560   45.4589   12.8702 O   0  0  0  0  0  0  0  0  0  0  0  0
  -29.4728   49.2770    9.7987 C   0  0  0  0  0  0  0  0  0  0  0  0
  -30.2981   50.2850    9.3804 C   0  0  0  0  0  0  0  0  0  0  0  0
  -30.0071   50.9790    8.2385 C   0  0  0  0  0  0  0  0  0  0  0  0
  -31.0328   52.2858    7.6527 Cl  0  0  0  0  0  0  0  0  0  0  0  0
  1  6  1  0
  9  1  2  0
  1 32  1  0
 12  2  1  0
  2 14  1  6
  3  4  1  6
  5  4  1  6
  6  4  1  6
  6  7  2  0
  6  8  2  0
 10  9  1  0
 11 10  1  0
 10 30  2  0
 11 12  1  0
 12 13  2  0
 14 15  1  0
 14 28  1  0
 15 16  2  0
 15 17  1  0
 18 17  1  6
 19 18  1  1
 18 27  1  0
 18 28  1  0
 19 20  1  0
 20 21  1  6
 21 22  1  6
 22 23  2  0
 22 27  1  0
 23 24  1  0
 24 25  2  0
 25 26  1  0
 26 27  2  0
 28 29  2  0
 30 31  1  0
 31 32  2  0
 32 33  1  0
M  END
$$$$
