
     RDKit          3D

 33 36  0  0  0  0  0  0  0  0999 V2000
  -25.6994   48.3085    9.1949 C   0  0  0  0  0  0  0  0  0  0  0  0
  -30.9795   46.4956   10.7584 C   0  0  0  0  0  0  0  0  0  0  0  0
  -25.9787   50.2799    6.7195 C   0  0  0  0  0  0  0  0  0  0  0  0
  -25.9121   50.8991    7.9922 N   0  0  0  0  0  0  0  0  0  0  0  0
  -27.0305   51.7519    8.2819 C   0  0  0  0  0  0  0  0  0  0  0  0
  -25.3601   50.0188    9.3065 S   0  0  1  0  0  6  0  0  0  0  0  0
  -26.0126   50.5379   10.5875 O   0  0  0  0  0  0  0  0  0  0  0  0
  -23.8601   50.2052    9.4456 O   0  0  0  0  0  0  0  0  0  0  0  0
  -26.9645   47.8426    9.6286 C   0  0  0  0  0  0  0  0  0  0  0  0
  -27.2928   46.5221    9.6350 C   0  0  0  0  0  0  0  0  0  0  0  0
  -28.5565   46.0510   10.0677 N   0  0  0  0  0  0  0  0  0  0  0  0
  -29.6222   46.9334   10.4286 C   0  0  0  0  0  0  0  0  0  0  0  0
  -29.3564   48.1531   10.4583 O   0  0  0  0  0  0  0  0  0  0  0  0
  -31.1359   45.0821   10.8625 N   0  0  0  0  0  0  0  0  0  0  0  0
  -30.9506   44.1455    9.8243 C   0  0  0  0  0  0  0  0  0  0  0  0
  -30.6133   44.3689    8.6099 O   0  0  0  0  0  0  0  0  0  0  0  0
  -31.2128   42.8635   10.3797 N   0  0  0  0  0  0  0  0  0  0  0  0
  -31.8805   43.0110   11.6603 C   0  0  2  0  0  0  0  0  0  0  0  0
  -31.3214   42.0495   12.6676 C   0  0  0  0  0  0  0  0  0  0  0  0
  -31.9431   42.1715   14.0113 C   0  0  0  0  0  0  0  0  0  0  0  0
  -33.4122   42.4092   14.0428 C   0  0  0  0  0  0  0  0  0  0  0  0
  -34.0422   42.5284   12.7054 C   0  0  0  0  0  0  0  0  0  0  0  0
  -35.3910   42.3457   12.6087 C   0  0  0  0  0  0  0  0  0  0  0  0
  -36.0833   42.4328   11.4179 C   0  0  0  0  0  0  0  0  0  0  0  0
  -35.3795   42.7180   10.2693 C   0  0  0  0  0  0  0  0  0  0  0  0
  -34.0026   42.9035   10.3741 C   0  0  0  0  0  0  0  0  0  0  0  0
  -33.3288   42.8135   11.5664 C   0  0  0  0  0  0  0  0  0  0  0  0
  -31.5082   44.3854   12.0450 C   0  0  0  0  0  0  0  0  0  0  0  0
  -31.5238   44.8504   13.2374 O   0  0  0  0  0  0  0  0  0  0  0  0
  -26.3343   45.6342    9.1969 C   0  0  0  0  0  0  0  0  0  0  0  0
  -25.0948   46.0500    8.7672 C   0  0  0  0  0  0  0  0  0  0  0  0
  -24.7751   47.4114    8.7661 C   0  0  0  0  0  0  0  0  0  0  0  0
  -23.2138   47.9314    8.1357 Cl  0  0  0  0  0  0  0  0  0  0  0  0
  1  6  1  0
  9  1  2  0
  1 32  1  0
 12  2  1  0
  2 14  1  0
  4  3  1  0
  4  5  1  0
  6  4  1  6
  6  7  2  0
  6  8  2  0
 10  9  1  0
 11 10  1  0
 10 30  2  0
 11 12  1  0
 12 13  2  0
 14 15  1  0
 14 28  1  0
 15 16  2  0
 15 17  1  0
 17 18  1  0
 18 19  1  1
 18 27  1  0
 18 28  1  0
 19 20  1  0
 20 21  1  0
 21 22  1  0
 22 23  2  0
 22 27  1  0
 23 24  1  0
 24 25  2  0
 25 26  1  0
 26 27  2  0
 28 29  2  0
 30 31  1  0
 31 32  2  0
 32 33  1  0
M  END
$$$$
