
     RDKit          3D

 33 36  0  0  0  0  0  0  0  0999 V2000
  -33.1252   43.6393   10.0722 C   0  0  0  0  0  0  0  0  0  0  0  0
  -28.3084   46.7336   10.9746 C   0  0  0  0  0  0  0  0  0  0  0  0
  -34.7805   43.0166    6.5673 C   0  0  0  0  0  0  0  0  0  0  0  0
  -33.8730   43.8095    7.3128 N   0  0  0  0  0  0  0  0  0  0  0  0
  -33.2552   44.8572    6.5494 C   0  0  0  0  0  0  0  0  0  0  0  0
  -34.2580   44.2400    8.8855 S   0  0  1  0  0  6  0  0  0  0  0  0
  -35.6398   43.6960    9.2471 O   0  0  0  0  0  0  0  0  0  0  0  0
  -34.3155   45.7528    8.9955 O   0  0  0  0  0  0  0  0  0  0  0  0
  -31.9654   44.4049   10.3449 C   0  0  0  0  0  0  0  0  0  0  0  0
  -31.0003   43.9855   11.2077 C   0  0  0  0  0  0  0  0  0  0  0  0
  -29.8387   44.7474   11.4838 N   0  0  0  0  0  0  0  0  0  0  0  0
  -29.5563   45.9835   10.8228 C   0  0  0  0  0  0  0  0  0  0  0  0
  -30.4455   46.4351   10.0715 O   0  0  0  0  0  0  0  0  0  0  0  0
  -27.1340   45.9259   11.0122 N   0  0  0  0  0  0  0  0  0  0  0  0
  -26.5362   45.3794   12.1669 C   0  0  0  0  0  0  0  0  0  0  0  0
  -26.9170   45.4949   13.3835 O   0  0  0  0  0  0  0  0  0  0  0  0
  -25.3957   44.6516   11.7306 N   0  0  0  0  0  0  0  0  0  0  0  0
  -25.0820   45.0078   10.3586 C   0  0  2  0  0  0  0  0  0  0  0  0
  -24.7223   43.7895    9.5597 C   0  0  0  0  0  0  0  0  0  0  0  0
  -24.4196   44.0834    8.1353 C   0  0  0  0  0  0  0  0  0  0  0  0
  -23.6447   45.3252    7.8650 C   0  0  0  0  0  0  0  0  0  0  0  0
  -23.3163   46.1179    9.0748 C   0  0  0  0  0  0  0  0  0  0  0  0
  -22.2995   47.0245    8.9962 C   0  0  0  0  0  0  0  0  0  0  0  0
  -21.9072   47.8159   10.0565 C   0  0  0  0  0  0  0  0  0  0  0  0
  -22.5740   47.6856   11.2543 C   0  0  0  0  0  0  0  0  0  0  0  0
  -23.6113   46.7584   11.3287 C   0  0  0  0  0  0  0  0  0  0  0  0
  -23.9893   45.9786   10.2645 C   0  0  0  0  0  0  0  0  0  0  0  0
  -26.3707   45.5393    9.8763 C   0  0  0  0  0  0  0  0  0  0  0  0
  -26.7217   45.6288    8.6487 O   0  0  0  0  0  0  0  0  0  0  0  0
  -31.1920   42.7661   11.8203 C   0  0  0  0  0  0  0  0  0  0  0  0
  -32.3066   41.9952   11.5809 C   0  0  0  0  0  0  0  0  0  0  0  0
  -33.2890   42.4426   10.6920 C   0  0  0  0  0  0  0  0  0  0  0  0
  -34.7473   41.4806   10.4607 Cl  0  0  0  0  0  0  0  0  0  0  0  0
  1  6  1  0
  9  1  2  0
  1 32  1  0
 12  2  1  0
  2 14  1  0
  4  3  1  0
  4  5  1  0
  6  4  1  6
  6  7  2  0
  6  8  2  0
 10  9  1  0
 11 10  1  0
 10 30  2  0
 11 12  1  0
 12 13  2  0
 14 15  1  0
 14 28  1  0
 15 16  2  0
 15 17  1  0
 17 18  1  0
 18 19  1  6
 18 27  1  0
 18 28  1  0
 19 20  1  0
 20 21  1  0
 21 22  1  0
 22 23  2  0
 22 27  1  0
 23 24  1  0
 24 25  2  0
 25 26  1  0
 26 27  2  0
 28 29  2  0
 30 31  1  0
 31 32  2  0
 32 33  1  0
M  END
$$$$
