
     RDKit          3D

 33 36  0  0  0  0  0  0  0  0999 V2000
  -31.9551   45.4818   16.4967 C   0  0  0  0  0  0  0  0  0  0  0  0
  -28.8878   43.9116   11.8366 C   0  0  0  0  0  0  0  0  0  0  0  0
  -30.1810   43.0582   18.3675 C   0  0  0  0  0  0  0  0  0  0  0  0
  -31.4005   42.9236   17.6588 N   0  0  0  0  0  0  0  0  0  0  0  0
  -32.0380   41.6493   17.8376 C   0  0  0  0  0  0  0  0  0  0  0  0
  -32.4605   44.2195   17.5937 S   0  0  1  0  0  6  0  0  0  0  0  0
  -32.6023   44.8419   18.9825 O   0  0  0  0  0  0  0  0  0  0  0  0
  -33.8321   43.7293   17.1665 O   0  0  0  0  0  0  0  0  0  0  0  0
  -31.1884   45.1215   15.3618 C   0  0  0  0  0  0  0  0  0  0  0  0
  -30.7008   46.0436   14.4879 C   0  0  0  0  0  0  0  0  0  0  0  0
  -29.9336   45.6884   13.3515 N   0  0  0  0  0  0  0  0  0  0  0  0
  -29.5946   44.3330   13.0472 C   0  0  0  0  0  0  0  0  0  0  0  0
  -29.9327   43.4680   13.8819 O   0  0  0  0  0  0  0  0  0  0  0  0
  -27.6294   44.5508   11.6340 N   0  0  0  0  0  0  0  0  0  0  0  0
  -26.7437   44.9837   12.6428 C   0  0  0  0  0  0  0  0  0  0  0  0
  -26.8866   44.8929   13.9116 O   0  0  0  0  0  0  0  0  0  0  0  0
  -25.6239   45.5596   11.9831 N   0  0  0  0  0  0  0  0  0  0  0  0
  -25.9441   45.7930   10.5865 C   0  0  2  0  0  0  0  0  0  0  0  0
  -24.7951   45.4042    9.7032 C   0  0  0  0  0  0  0  0  0  0  0  0
  -25.0714   45.5906    8.2555 C   0  0  0  0  0  0  0  0  0  0  0  0
  -25.8343   46.8118    7.8782 C   0  0  0  0  0  0  0  0  0  0  0  0
  -26.2448   47.6566    9.0261 C   0  0  0  0  0  0  0  0  0  0  0  0
  -26.5796   48.9570    8.7833 C   0  0  0  0  0  0  0  0  0  0  0  0
  -26.9760   49.8339    9.7725 C   0  0  0  0  0  0  0  0  0  0  0  0
  -27.0373   49.3756   11.0695 C   0  0  0  0  0  0  0  0  0  0  0  0
  -26.6943   48.0471   11.3114 C   0  0  0  0  0  0  0  0  0  0  0  0
  -26.3019   47.1874   10.3161 C   0  0  0  0  0  0  0  0  0  0  0  0
  -27.0620   44.8562   10.3663 C   0  0  0  0  0  0  0  0  0  0  0  0
  -27.4397   44.4087    9.2281 O   0  0  0  0  0  0  0  0  0  0  0  0
  -30.9830   47.3670   14.7484 C   0  0  0  0  0  0  0  0  0  0  0  0
  -31.7255   47.7547   15.8403 C   0  0  0  0  0  0  0  0  0  0  0  0
  -32.2198   46.7933   16.7274 C   0  0  0  0  0  0  0  0  0  0  0  0
  -33.2370   47.3019   18.0735 Cl  0  0  0  0  0  0  0  0  0  0  0  0
  1  6  1  0
  9  1  2  0
  1 32  1  0
 12  2  1  0
  2 14  1  0
  4  3  1  0
  4  5  1  0
  6  4  1  1
  6  7  2  0
  6  8  2  0
 10  9  1  0
 11 10  1  0
 10 30  2  0
 11 12  1  0
 12 13  2  0
 14 15  1  0
 14 28  1  0
 15 16  2  0
 15 17  1  0
 17 18  1  0
 18 19  1  6
 18 27  1  0
 18 28  1  0
 19 20  1  0
 20 21  1  0
 21 22  1  0
 22 23  2  0
 22 27  1  0
 23 24  1  0
 24 25  2  0
 25 26  1  0
 26 27  2  0
 28 29  2  0
 30 31  1  0
 31 32  2  0
 32 33  1  0
M  END
$$$$
