
     RDKit          3D

 33 36  0  0  0  0  0  0  0  0999 V2000
  -29.1170   50.5890    5.1624 C   0  0  0  0  0  0  0  0  0  0  0  0
  -28.5138   48.0354   10.2362 C   0  0  0  0  0  0  0  0  0  0  0  0
  -27.9726   50.4007    2.3283 C   0  0  0  0  0  0  0  0  0  0  0  0
  -27.0248   50.9591    3.2714 N   0  0  0  0  0  0  0  0  0  0  0  0
  -26.1859   49.9093    3.7835 C   0  0  0  0  0  0  0  0  0  0  0  0
  -27.9298   51.7195    4.5368 S   0  0  1  0  0  6  0  0  0  0  0  0
  -28.6529   52.9145    3.9719 O   0  0  0  0  0  0  0  0  0  0  0  0
  -27.0771   52.1640    5.6651 O   0  0  0  0  0  0  0  0  0  0  0  0
  -28.8384   49.8275    6.3090 C   0  0  0  0  0  0  0  0  0  0  0  0
  -29.7541   48.9444    6.8068 C   0  0  0  0  0  0  0  0  0  0  0  0
  -29.6006   48.1291    7.9384 N   0  0  0  0  0  0  0  0  0  0  0  0
  -28.4463   47.9793    8.7439 C   0  0  0  0  0  0  0  0  0  0  0  0
  -27.3446   47.7956    8.1870 O   0  0  0  0  0  0  0  0  0  0  0  0
  -29.3111   46.9412   10.7590 N   0  0  0  0  0  0  0  0  0  0  0  0
  -30.6707   47.0319   11.2119 C   0  0  0  0  0  0  0  0  0  0  0  0
  -31.3331   48.1083   11.2019 O   0  0  0  0  0  0  0  0  0  0  0  0
  -31.1046   45.7541   11.6483 N   0  0  0  0  0  0  0  0  0  0  0  0
  -30.1995   44.7875   11.1290 C   0  0  2  0  0  0  0  0  0  0  0  0
  -30.6708   44.3721    9.7416 C   0  0  0  0  0  0  0  0  0  0  0  0
  -29.8457   43.2204    9.2445 C   0  0  0  0  0  0  0  0  0  0  0  0
  -30.1143   41.9924   10.0749 C   0  0  0  0  0  0  0  0  0  0  0  0
  -29.9693   42.3204   11.5175 C   0  0  0  0  0  0  0  0  0  0  0  0
  -29.7873   41.2307   12.3712 C   0  0  0  0  0  0  0  0  0  0  0  0
  -29.6453   41.4479   13.7169 C   0  0  0  0  0  0  0  0  0  0  0  0
  -29.6831   42.7166   14.2015 C   0  0  0  0  0  0  0  0  0  0  0  0
  -29.8629   43.7833   13.3515 C   0  0  0  0  0  0  0  0  0  0  0  0
  -30.0085   43.6121   12.0052 C   0  0  0  0  0  0  0  0  0  0  0  0
  -28.9586   45.5788   10.9412 C   0  0  0  0  0  0  0  0  0  0  0  0
  -27.7557   45.1576   10.9354 O   0  0  0  0  0  0  0  0  0  0  0  0
  -30.9563   48.8597    6.1064 C   0  0  0  0  0  0  0  0  0  0  0  0
  -31.2336   49.5989    4.9889 C   0  0  0  0  0  0  0  0  0  0  0  0
  -30.3067   50.4788    4.5025 C   0  0  0  0  0  0  0  0  0  0  0  0
  -30.6091   51.4563    3.0684 Cl  0  0  0  0  0  0  0  0  0  0  0  0
  1  6  1  0
  9  1  2  0
  1 32  1  0
 12  2  1  0
  2 14  1  6
  3  4  1  6
  5  4  1  6
  6  4  1  6
  6  7  2  0
  6  8  2  0
 10  9  1  0
 11 10  1  0
 10 30  2  0
 11 12  1  0
 12 13  2  0
 14 15  1  0
 14 28  1  0
 15 16  2  0
 15 17  1  0
 18 17  1  1
 19 18  1  1
 18 27  1  0
 18 28  1  0
 19 20  1  0
 20 21  1  6
 21 22  1  6
 22 23  2  0
 22 27  1  0
 23 24  1  0
 24 25  2  0
 25 26  1  0
 26 27  2  0
 28 29  2  0
 30 31  1  0
 31 32  2  0
 32 33  1  0
M  END
$$$$
