
     RDKit          3D

 33 36  0  0  0  0  0  0  0  0999 V2000
  -31.8558   44.8477   12.5060 C   0  0  0  0  0  0  0  0  0  0  0  0
  -26.1535   45.7324   12.2893 C   0  0  0  0  0  0  0  0  0  0  0  0
  -30.4916   44.8212   15.7276 C   0  0  0  0  0  0  0  0  0  0  0  0
  -31.7839   45.2542   15.3401 N   0  0  0  0  0  0  0  0  0  0  0  0
  -31.9484   46.6807   15.3606 C   0  0  0  0  0  0  0  0  0  0  0  0
  -32.5583   44.4911   14.0653 S   0  0  1  0  0  6  0  0  0  0  0  0
  -34.0253   44.9181   14.0212 O   0  0  0  0  0  0  0  0  0  0  0  0
  -32.5223   42.9887   14.2788 O   0  0  0  0  0  0  0  0  0  0  0  0
  -30.4736   45.1496   12.4425 C   0  0  0  0  0  0  0  0  0  0  0  0
  -29.8554   45.4983   11.2815 C   0  0  0  0  0  0  0  0  0  0  0  0
  -28.4734   45.8011   11.2128 N   0  0  0  0  0  0  0  0  0  0  0  0
  -27.6158   45.7370   12.3551 C   0  0  0  0  0  0  0  0  0  0  0  0
  -28.1708   45.6819   13.4723 O   0  0  0  0  0  0  0  0  0  0  0  0
  -25.6158   45.0978   11.1311 N   0  0  0  0  0  0  0  0  0  0  0  0
  -25.0821   43.7936   11.0688 C   0  0  0  0  0  0  0  0  0  0  0  0
  -24.9751   42.9379   12.0147 O   0  0  0  0  0  0  0  0  0  0  0  0
  -24.6683   43.5859    9.7248 N   0  0  0  0  0  0  0  0  0  0  0  0
  -24.6302   44.8554    9.0215 C   0  0  2  0  0  0  0  0  0  0  0  0
  -25.2039   44.7186    7.6417 C   0  0  0  0  0  0  0  0  0  0  0  0
  -25.2222   45.9932    6.8789 C   0  0  0  0  0  0  0  0  0  0  0  0
  -24.0342   46.8764    7.0353 C   0  0  0  0  0  0  0  0  0  0  0  0
  -23.0079   46.3619    7.9743 C   0  0  0  0  0  0  0  0  0  0  0  0
  -21.7432   46.8670    7.8883 C   0  0  0  0  0  0  0  0  0  0  0  0
  -20.7095   46.4637    8.7090 C   0  0  0  0  0  0  0  0  0  0  0  0
  -20.9653   45.5039    9.6627 C   0  0  0  0  0  0  0  0  0  0  0  0
  -22.2583   44.9918    9.7459 C   0  0  0  0  0  0  0  0  0  0  0  0
  -23.2757   45.4037    8.9218 C   0  0  0  0  0  0  0  0  0  0  0  0
  -25.5320   45.6877    9.8399 C   0  0  0  0  0  0  0  0  0  0  0  0
  -26.1250   46.7496    9.4410 O   0  0  0  0  0  0  0  0  0  0  0  0
  -30.6340   45.5494   10.1458 C   0  0  0  0  0  0  0  0  0  0  0  0
  -31.9796   45.2616   10.1687 C   0  0  0  0  0  0  0  0  0  0  0  0
  -32.5982   44.9038   11.3707 C   0  0  0  0  0  0  0  0  0  0  0  0
  -34.3035   44.4594   11.3657 Cl  0  0  0  0  0  0  0  0  0  0  0  0
  1  6  1  0
  9  1  2  0
  1 32  1  0
 12  2  1  0
  2 14  1  0
  4  3  1  0
  4  5  1  0
  6  4  1  1
  6  7  2  0
  6  8  2  0
 10  9  1  0
 11 10  1  0
 10 30  2  0
 11 12  1  0
 12 13  2  0
 14 15  1  0
 14 28  1  0
 15 16  2  0
 15 17  1  0
 17 18  1  0
 18 19  1  6
 18 27  1  0
 18 28  1  0
 19 20  1  0
 20 21  1  0
 21 22  1  0
 22 23  2  0
 22 27  1  0
 23 24  1  0
 24 25  2  0
 25 26  1  0
 26 27  2  0
 28 29  2  0
 30 31  1  0
 31 32  2  0
 32 33  1  0
M  END
$$$$
