
     RDKit          3D

 33 36  0  0  0  0  0  0  0  0999 V2000
  -33.2276   47.2862   14.9038 C   0  0  0  0  0  0  0  0  0  0  0  0
  -28.9391   43.9132   12.4482 C   0  0  0  0  0  0  0  0  0  0  0  0
  -33.8487   44.9066   16.8142 C   0  0  0  0  0  0  0  0  0  0  0  0
  -34.5869   46.1174   17.1120 N   0  0  0  0  0  0  0  0  0  0  0  0
  -35.8482   46.0895   16.4216 C   0  0  0  0  0  0  0  0  0  0  0  0
  -33.6182   47.4603   16.6055 S   0  0  1  0  0  6  0  0  0  0  0  0
  -32.3359   47.4653   17.3965 O   0  0  0  0  0  0  0  0  0  0  0  0
  -34.3012   48.7630   16.7908 O   0  0  0  0  0  0  0  0  0  0  0  0
  -32.0664   46.6031   14.5071 C   0  0  0  0  0  0  0  0  0  0  0  0
  -31.7512   46.4598   13.1856 C   0  0  0  0  0  0  0  0  0  0  0  0
  -30.6280   45.8032   12.6600 N   0  0  0  0  0  0  0  0  0  0  0  0
  -29.9003   44.7379   13.2423 C   0  0  0  0  0  0  0  0  0  0  0  0
  -30.0701   44.4849   14.4526 O   0  0  0  0  0  0  0  0  0  0  0  0
  -27.8478   44.7291   11.9488 N   0  0  0  0  0  0  0  0  0  0  0  0
  -26.7970   45.3051   12.7400 C   0  0  0  0  0  0  0  0  0  0  0  0
  -26.7127   45.1562   13.9924 O   0  0  0  0  0  0  0  0  0  0  0  0
  -25.9204   46.0326   11.8953 N   0  0  0  0  0  0  0  0  0  0  0  0
  -26.1631   45.6172   10.5567 C   0  0  2  0  0  0  0  0  0  0  0  0
  -25.2953   44.4019   10.2570 C   0  0  0  0  0  0  0  0  0  0  0  0
  -25.3882   44.0538    8.7995 C   0  0  0  0  0  0  0  0  0  0  0  0
  -24.7541   45.1364    7.9655 C   0  0  0  0  0  0  0  0  0  0  0  0
  -25.3094   46.4595    8.3539 C   0  0  0  0  0  0  0  0  0  0  0  0
  -25.1341   47.4865    7.4246 C   0  0  0  0  0  0  0  0  0  0  0  0
  -25.6173   48.7376    7.7067 C   0  0  0  0  0  0  0  0  0  0  0  0
  -26.2588   48.9617    8.8833 C   0  0  0  0  0  0  0  0  0  0  0  0
  -26.4262   47.9426    9.7921 C   0  0  0  0  0  0  0  0  0  0  0  0
  -25.9608   46.6822    9.5514 C   0  0  0  0  0  0  0  0  0  0  0  0
  -27.5656   45.1375   10.6195 C   0  0  0  0  0  0  0  0  0  0  0  0
  -28.4157   45.0801    9.6716 O   0  0  0  0  0  0  0  0  0  0  0  0
  -32.6484   47.0298   12.2839 C   0  0  0  0  0  0  0  0  0  0  0  0
  -33.7811   47.6965   12.6642 C   0  0  0  0  0  0  0  0  0  0  0  0
  -34.0834   47.8317   13.9910 C   0  0  0  0  0  0  0  0  0  0  0  0
  -35.5275   48.6791   14.5384 Cl  0  0  0  0  0  0  0  0  0  0  0  0
  1  6  1  0
  9  1  2  0
  1 32  1  0
 12  2  1  0
  2 14  1  6
  3  4  1  6
  5  4  1  6
  6  4  1  1
  6  7  2  0
  6  8  2  0
 10  9  1  0
 11 10  1  0
 10 30  2  0
 11 12  1  0
 12 13  2  0
 14 15  1  0
 14 28  1  0
 15 16  2  0
 15 17  1  0
 18 17  1  1
 19 18  1  1
 18 27  1  0
 18 28  1  0
 19 20  1  0
 20 21  1  6
 21 22  1  6
 22 23  2  0
 22 27  1  0
 23 24  1  0
 24 25  2  0
 25 26  1  0
 26 27  2  0
 28 29  2  0
 30 31  1  0
 31 32  2  0
 32 33  1  0
M  END
$$$$
