
     RDKit          3D

 33 36  0  0  0  0  0  0  0  0999 V2000
  -31.6500   43.0349    7.1160 C   0  0  0  0  0  0  0  0  0  0  0  0
  -28.8583   44.8284   12.0712 C   0  0  0  0  0  0  0  0  0  0  0  0
  -34.7983   42.6395    6.8648 C   0  0  0  0  0  0  0  0  0  0  0  0
  -34.0702   41.6178    7.5897 N   0  0  0  0  0  0  0  0  0  0  0  0
  -34.0097   41.9719    8.9822 C   0  0  0  0  0  0  0  0  0  0  0  0
  -32.4877   41.5089    6.8954 S   0  0  1  0  0  6  0  0  0  0  0  0
  -32.6180   41.2396    5.4188 O   0  0  0  0  0  0  0  0  0  0  0  0
  -31.6647   40.4386    7.5075 O   0  0  0  0  0  0  0  0  0  0  0  0
  -30.9599   43.3010    8.3098 C   0  0  0  0  0  0  0  0  0  0  0  0
  -30.3030   44.4845    8.4940 C   0  0  0  0  0  0  0  0  0  0  0  0
  -29.5798   44.8715    9.6325 N   0  0  0  0  0  0  0  0  0  0  0  0
  -29.8207   44.4973   10.9762 C   0  0  0  0  0  0  0  0  0  0  0  0
  -30.8671   43.8740   11.2481 O   0  0  0  0  0  0  0  0  0  0  0  0
  -27.7906   45.6802   11.5808 N   0  0  0  0  0  0  0  0  0  0  0  0
  -26.4459   45.2649   11.2962 C   0  0  0  0  0  0  0  0  0  0  0  0
  -26.0413   44.0772   11.4492 O   0  0  0  0  0  0  0  0  0  0  0  0
  -25.6994   46.3796   10.8362 N   0  0  0  0  0  0  0  0  0  0  0  0
  -26.6223   47.3928   10.4553 C   0  0  2  0  0  0  0  0  0  0  0  0
  -27.0167   47.1731    9.0007 C   0  0  0  0  0  0  0  0  0  0  0  0
  -27.8419   48.3292    8.5141 C   0  0  0  0  0  0  0  0  0  0  0  0
  -27.0011   49.5777    8.4519 C   0  0  0  0  0  0  0  0  0  0  0  0
  -26.3033   49.7782    9.7491 C   0  0  0  0  0  0  0  0  0  0  0  0
  -25.8246   51.0681    9.9864 C   0  0  0  0  0  0  0  0  0  0  0  0
  -25.1693   51.3361   11.1598 C   0  0  0  0  0  0  0  0  0  0  0  0
  -24.9944   50.3465   12.0742 C   0  0  0  0  0  0  0  0  0  0  0  0
  -25.4700   49.0789   11.8303 C   0  0  0  0  0  0  0  0  0  0  0  0
  -26.1280   48.7687   10.6754 C   0  0  0  0  0  0  0  0  0  0  0  0
  -27.8138   47.0660   11.2767 C   0  0  0  0  0  0  0  0  0  0  0  0
  -28.7330   47.8564   11.6704 O   0  0  0  0  0  0  0  0  0  0  0  0
  -30.3690   45.3852    7.4322 C   0  0  0  0  0  0  0  0  0  0  0  0
  -31.0397   45.1318    6.2668 C   0  0  0  0  0  0  0  0  0  0  0  0
  -31.6926   43.9422    6.0971 C   0  0  0  0  0  0  0  0  0  0  0  0
  -32.5715   43.5616    4.6187 Cl  0  0  0  0  0  0  0  0  0  0  0  0
  1  6  1  0
  9  1  2  0
  1 32  1  0
 12  2  1  0
  2 14  1  6
  3  4  1  6
  5  4  1  6
  6  4  1  1
  6  7  2  0
  6  8  2  0
 10  9  1  0
 11 10  1  0
 10 30  2  0
 11 12  1  0
 12 13  2  0
 14 15  1  0
 14 28  1  0
 15 16  2  0
 15 17  1  0
 18 17  1  1
 19 18  1  1
 18 27  1  0
 18 28  1  0
 19 20  1  0
 20 21  1  6
 21 22  1  6
 22 23  2  0
 22 27  1  0
 23 24  1  0
 24 25  2  0
 25 26  1  0
 26 27  2  0
 28 29  2  0
 30 31  1  0
 31 32  2  0
 32 33  1  0
M  END
$$$$
