
     RDKit          3D

 33 36  0  0  0  0  0  0  0  0999 V2000
  -33.1991   43.1968    8.0064 C   0  0  0  0  0  0  0  0  0  0  0  0
  -29.4822   45.2300   12.2048 C   0  0  0  0  0  0  0  0  0  0  0  0
  -34.1772   44.1363    4.9623 C   0  0  0  0  0  0  0  0  0  0  0  0
  -34.3433   44.9918    6.1199 N   0  0  0  0  0  0  0  0  0  0  0  0
  -33.1438   45.7587    6.3228 C   0  0  0  0  0  0  0  0  0  0  0  0
  -34.6812   43.9746    7.4798 S   0  0  1  0  0  6  0  0  0  0  0  0
  -35.6627   42.9101    7.0634 O   0  0  0  0  0  0  0  0  0  0  0  0
  -35.2435   44.7220    8.6300 O   0  0  0  0  0  0  0  0  0  0  0  0
  -32.3900   43.7971    8.9848 C   0  0  0  0  0  0  0  0  0  0  0  0
  -31.2342   43.2017    9.4042 C   0  0  0  0  0  0  0  0  0  0  0  0
  -30.3423   43.6936   10.3693 N   0  0  0  0  0  0  0  0  0  0  0  0
  -30.4729   44.8707   11.1446 C   0  0  0  0  0  0  0  0  0  0  0  0
  -31.4441   45.6252   10.9327 O   0  0  0  0  0  0  0  0  0  0  0  0
  -28.3794   45.9898   11.6455 N   0  0  0  0  0  0  0  0  0  0  0  0
  -27.0180   45.5452   11.5417 C   0  0  0  0  0  0  0  0  0  0  0  0
  -26.6282   44.4107   11.9401 O   0  0  0  0  0  0  0  0  0  0  0  0
  -26.2374   46.5651   10.9402 N   0  0  0  0  0  0  0  0  0  0  0  0
  -27.1275   47.4799   10.3125 C   0  0  2  0  0  0  0  0  0  0  0  0
  -27.4133   46.9918    8.8984 C   0  0  0  0  0  0  0  0  0  0  0  0
  -28.1979   48.0289    8.1479 C   0  0  0  0  0  0  0  0  0  0  0  0
  -27.3524   49.2546    7.9186 C   0  0  0  0  0  0  0  0  0  0  0  0
  -26.7525   49.6984    9.2042 C   0  0  0  0  0  0  0  0  0  0  0  0
  -26.2903   51.0155    9.2343 C   0  0  0  0  0  0  0  0  0  0  0  0
  -25.7234   51.5025   10.3830 C   0  0  0  0  0  0  0  0  0  0  0  0
  -25.6187   50.7000   11.4744 C   0  0  0  0  0  0  0  0  0  0  0  0
  -26.0774   49.4036   11.4341 C   0  0  0  0  0  0  0  0  0  0  0  0
  -26.6484   48.8786   10.3110 C   0  0  0  0  0  0  0  0  0  0  0  0
  -28.3773   47.2957   11.0904 C   0  0  0  0  0  0  0  0  0  0  0  0
  -29.3217   48.1340   11.2634 O   0  0  0  0  0  0  0  0  0  0  0  0
  -30.9275   41.9830    8.8010 C   0  0  0  0  0  0  0  0  0  0  0  0
  -31.7117   41.3932    7.8474 C   0  0  0  0  0  0  0  0  0  0  0  0
  -32.8660   42.0014    7.4378 C   0  0  0  0  0  0  0  0  0  0  0  0
  -33.9141   41.2886    6.2145 Cl  0  0  0  0  0  0  0  0  0  0  0  0
  1  6  1  0
  9  1  2  0
  1 32  1  0
 12  2  1  0
  2 14  1  6
  3  4  1  6
  5  4  1  6
  6  4  1  6
  6  7  2  0
  6  8  2  0
 10  9  1  0
 11 10  1  0
 10 30  2  0
 11 12  1  0
 12 13  2  0
 14 15  1  0
 14 28  1  0
 15 16  2  0
 15 17  1  0
 18 17  1  1
 19 18  1  1
 18 27  1  0
 18 28  1  0
 19 20  1  0
 20 21  1  6
 21 22  1  6
 22 23  2  0
 22 27  1  0
 23 24  1  0
 24 25  2  0
 25 26  1  0
 26 27  2  0
 28 29  2  0
 30 31  1  0
 31 32  2  0
 32 33  1  0
M  END
$$$$
