
     RDKit          3D

 33 36  0  0  0  0  0  0  0  0999 V2000
  -32.2833   42.9617    7.5424 C   0  0  0  0  0  0  0  0  0  0  0  0
  -28.6560   44.9856   11.5865 C   0  0  0  0  0  0  0  0  0  0  0  0
  -34.0515   44.4544   10.1157 C   0  0  0  0  0  0  0  0  0  0  0  0
  -34.5190   44.2402    8.7954 N   0  0  0  0  0  0  0  0  0  0  0  0
  -34.6153   45.4399    8.0120 C   0  0  0  0  0  0  0  0  0  0  0  0
  -33.9833   42.9023    7.9409 S   0  0  1  0  0  6  0  0  0  0  0  0
  -34.7621   42.7790    6.6315 O   0  0  0  0  0  0  0  0  0  0  0  0
  -34.2453   41.6464    8.7524 O   0  0  0  0  0  0  0  0  0  0  0  0
  -31.3785   43.4447    8.5190 C   0  0  0  0  0  0  0  0  0  0  0  0
  -30.0470   43.5831    8.2751 C   0  0  0  0  0  0  0  0  0  0  0  0
  -29.1380   44.0656    9.2484 N   0  0  0  0  0  0  0  0  0  0  0  0
  -29.5638   44.5377   10.5291 C   0  0  0  0  0  0  0  0  0  0  0  0
  -30.7946   44.5613   10.7388 O   0  0  0  0  0  0  0  0  0  0  0  0
  -27.3940   45.4586   11.1211 N   0  0  0  0  0  0  0  0  0  0  0  0
  -26.1339   45.1508   11.6751 C   0  0  0  0  0  0  0  0  0  0  0  0
  -25.8748   44.4038   12.6817 O   0  0  0  0  0  0  0  0  0  0  0  0
  -25.1657   45.8385   10.8939 N   0  0  0  0  0  0  0  0  0  0  0  0
  -25.8213   46.8346   10.0658 C   0  0  2  0  0  0  0  0  0  0  0  0
  -25.2439   46.8411    8.6808 C   0  0  0  0  0  0  0  0  0  0  0  0
  -25.8946   47.8201    7.7725 C   0  0  0  0  0  0  0  0  0  0  0  0
  -26.2516   49.1381    8.3649 C   0  0  0  0  0  0  0  0  0  0  0  0
  -25.9337   49.2675    9.8078 C   0  0  0  0  0  0  0  0  0  0  0  0
  -25.8439   50.5211   10.3392 C   0  0  0  0  0  0  0  0  0  0  0  0
  -25.5543   50.7616   11.6670 C   0  0  0  0  0  0  0  0  0  0  0  0
  -25.3452   49.6840   12.4984 C   0  0  0  0  0  0  0  0  0  0  0  0
  -25.4382   48.4065   11.9504 C   0  0  0  0  0  0  0  0  0  0  0  0
  -25.7272   48.1842   10.6272 C   0  0  0  0  0  0  0  0  0  0  0  0
  -27.2049   46.3265   10.0106 C   0  0  0  0  0  0  0  0  0  0  0  0
  -28.0681   46.6254    9.1140 O   0  0  0  0  0  0  0  0  0  0  0  0
  -29.5980   43.2307    7.0209 C   0  0  0  0  0  0  0  0  0  0  0  0
  -30.4471   42.7566    6.0472 C   0  0  0  0  0  0  0  0  0  0  0  0
  -31.8126   42.6197    6.3158 C   0  0  0  0  0  0  0  0  0  0  0  0
  -32.8707   41.9343    5.0844 Cl  0  0  0  0  0  0  0  0  0  0  0  0
  1  6  1  0
  9  1  2  0
  1 32  1  0
 12  2  1  0
  2 14  1  0
  4  3  1  0
  4  5  1  0
  6  4  1  1
  6  7  2  0
  6  8  2  0
 10  9  1  0
 11 10  1  0
 10 30  2  0
 11 12  1  0
 12 13  2  0
 14 15  1  0
 14 28  1  0
 15 16  2  0
 15 17  1  0
 17 18  1  0
 18 19  1  6
 18 27  1  0
 18 28  1  0
 19 20  1  0
 20 21  1  0
 21 22  1  0
 22 23  2  0
 22 27  1  0
 23 24  1  0
 24 25  2  0
 25 26  1  0
 26 27  2  0
 28 29  2  0
 30 31  1  0
 31 32  2  0
 32 33  1  0
M  END
$$$$
