
     RDKit          3D

 33 36  0  0  0  0  0  0  0  0999 V2000
  -27.3705   50.2554    8.4215 C   0  0  0  0  0  0  0  0  0  0  0  0
  -26.7504   46.1873   12.4558 C   0  0  0  0  0  0  0  0  0  0  0  0
  -26.2146   53.9344    9.0382 C   0  0  0  0  0  0  0  0  0  0  0  0
  -26.6385   52.7329    9.6580 N   0  0  0  0  0  0  0  0  0  0  0  0
  -26.7039   52.8106   11.0905 C   0  0  0  0  0  0  0  0  0  0  0  0
  -27.8725   51.8395    8.9609 S   0  0  1  0  0  6  0  0  0  0  0  0
  -28.4308   52.5860    7.7496 O   0  0  0  0  0  0  0  0  0  0  0  0
  -29.0028   51.6734    9.9604 O   0  0  0  0  0  0  0  0  0  0  0  0
  -27.1629   49.2468    9.3937 C   0  0  0  0  0  0  0  0  0  0  0  0
  -26.7136   48.0036    9.0710 C   0  0  0  0  0  0  0  0  0  0  0  0
  -26.5044   46.9914   10.0395 N   0  0  0  0  0  0  0  0  0  0  0  0
  -26.6205   47.2366   11.4434 C   0  0  0  0  0  0  0  0  0  0  0  0
  -26.6080   48.4307   11.8084 O   0  0  0  0  0  0  0  0  0  0  0  0
  -27.2942   44.9617   11.9706 N   0  0  0  0  0  0  0  0  0  0  0  0
  -26.5754   43.9227   11.3435 C   0  0  0  0  0  0  0  0  0  0  0  0
  -25.3220   43.8709   11.0896 O   0  0  0  0  0  0  0  0  0  0  0  0
  -27.5180   42.9055   11.0307 N   0  0  0  0  0  0  0  0  0  0  0  0
  -28.8656   43.4315   11.1524 C   0  0  2  0  0  0  0  0  0  0  0  0
  -29.7663   42.4402   11.8289 C   0  0  0  0  0  0  0  0  0  0  0  0
  -31.1563   42.9316   12.0121 C   0  0  0  0  0  0  0  0  0  0  0  0
  -31.7349   43.7174   10.8881 C   0  0  0  0  0  0  0  0  0  0  0  0
  -30.8097   43.9287    9.7483 C   0  0  0  0  0  0  0  0  0  0  0  0
  -31.3424   44.2693    8.5391 C   0  0  0  0  0  0  0  0  0  0  0  0
  -30.5790   44.4904    7.4108 C   0  0  0  0  0  0  0  0  0  0  0  0
  -29.2115   44.3614    7.5084 C   0  0  0  0  0  0  0  0  0  0  0  0
  -28.6733   44.0136    8.7454 C   0  0  0  0  0  0  0  0  0  0  0  0
  -29.4466   43.7970    9.8584 C   0  0  0  0  0  0  0  0  0  0  0  0
  -28.6648   44.5895   12.0437 C   0  0  0  0  0  0  0  0  0  0  0  0
  -29.5752   45.1469   12.7499 O   0  0  0  0  0  0  0  0  0  0  0  0
  -26.4618   47.7525    7.7397 C   0  0  0  0  0  0  0  0  0  0  0  0
  -26.6528   48.7071    6.7670 C   0  0  0  0  0  0  0  0  0  0  0  0
  -27.1164   49.9793    7.1168 C   0  0  0  0  0  0  0  0  0  0  0  0
  -27.4330   51.1619    5.8493 Cl  0  0  0  0  0  0  0  0  0  0  0  0
  1  6  1  0
  9  1  2  0
  1 32  1  0
 12  2  1  0
  2 14  1  0
  4  3  1  0
  4  5  1  0
  6  4  1  1
  6  7  2  0
  6  8  2  0
 10  9  1  0
 11 10  1  0
 10 30  2  0
 11 12  1  0
 12 13  2  0
 14 15  1  0
 14 28  1  0
 15 16  2  0
 15 17  1  0
 17 18  1  0
 18 19  1  1
 18 27  1  0
 18 28  1  0
 19 20  1  0
 20 21  1  0
 21 22  1  0
 22 23  2  0
 22 27  1  0
 23 24  1  0
 24 25  2  0
 25 26  1  0
 26 27  2  0
 28 29  2  0
 30 31  1  0
 31 32  2  0
 32 33  1  0
M  END
$$$$
