
     RDKit          3D

 33 36  0  0  0  0  0  0  0  0999 V2000
  -27.9578   50.9141    8.2938 C   0  0  0  0  0  0  0  0  0  0  0  0
  -27.8744   45.6650   11.1195 C   0  0  0  0  0  0  0  0  0  0  0  0
  -26.2020   51.3349    5.7114 C   0  0  0  0  0  0  0  0  0  0  0  0
  -27.4457   50.6187    5.5116 N   0  0  0  0  0  0  0  0  0  0  0  0
  -27.9124   50.8378    4.1691 C   0  0  0  0  0  0  0  0  0  0  0  0
  -28.5818   51.2044    6.6797 S   0  0  1  0  0  6  0  0  0  0  0  0
  -29.8782   50.4532    6.5217 O   0  0  0  0  0  0  0  0  0  0  0  0
  -28.8489   52.6562    6.5429 O   0  0  0  0  0  0  0  0  0  0  0  0
  -28.0454   49.6368    8.8708 C   0  0  0  0  0  0  0  0  0  0  0  0
  -27.5628   49.3972   10.1262 C   0  0  0  0  0  0  0  0  0  0  0  0
  -27.5878   48.1736   10.8126 N   0  0  0  0  0  0  0  0  0  0  0  0
  -28.0478   46.9240   10.3324 C   0  0  0  0  0  0  0  0  0  0  0  0
  -28.6128   46.8785    9.2206 O   0  0  0  0  0  0  0  0  0  0  0  0
  -29.0610   45.3787   11.9044 N   0  0  0  0  0  0  0  0  0  0  0  0
  -30.1793   44.5841   11.4803 C   0  0  0  0  0  0  0  0  0  0  0  0
  -30.2471   44.0358   10.3434 O   0  0  0  0  0  0  0  0  0  0  0  0
  -31.1400   44.5344   12.5224 N   0  0  0  0  0  0  0  0  0  0  0  0
  -30.4991   44.9464   13.7236 C   0  0  2  0  0  0  0  0  0  0  0  0
  -29.8602   43.7291   14.3791 C   0  0  0  0  0  0  0  0  0  0  0  0
  -29.3379   44.0950   15.7384 C   0  0  0  0  0  0  0  0  0  0  0  0
  -30.4815   44.4172   16.6648 C   0  0  0  0  0  0  0  0  0  0  0  0
  -31.3808   45.4129   16.0248 C   0  0  0  0  0  0  0  0  0  0  0  0
  -32.2341   46.1018   16.8888 C   0  0  0  0  0  0  0  0  0  0  0  0
  -33.0952   47.0376   16.3778 C   0  0  0  0  0  0  0  0  0  0  0  0
  -33.1073   47.2823   15.0414 C   0  0  0  0  0  0  0  0  0  0  0  0
  -32.2622   46.5978   14.1988 C   0  0  0  0  0  0  0  0  0  0  0  0
  -31.3893   45.6579   14.6655 C   0  0  0  0  0  0  0  0  0  0  0  0
  -29.3902   45.7940   13.2207 C   0  0  0  0  0  0  0  0  0  0  0  0
  -28.7973   46.7463   13.8257 O   0  0  0  0  0  0  0  0  0  0  0  0
  -26.9911   50.4910   10.7740 C   0  0  0  0  0  0  0  0  0  0  0  0
  -26.9028   51.7377   10.2171 C   0  0  0  0  0  0  0  0  0  0  0  0
  -27.3904   51.9621    8.9594 C   0  0  0  0  0  0  0  0  0  0  0  0
  -27.3038   53.5457    8.1926 Cl  0  0  0  0  0  0  0  0  0  0  0  0
  1  6  1  0
  9  1  2  0
  1 32  1  0
 12  2  1  0
  2 14  1  6
  3  4  1  6
  5  4  1  6
  6  4  1  6
  6  7  2  0
  6  8  2  0
 10  9  1  0
 11 10  1  0
 10 30  2  0
 11 12  1  0
 12 13  2  0
 14 15  1  0
 14 28  1  0
 15 16  2  0
 15 17  1  0
 18 17  1  6
 19 18  1  1
 18 27  1  0
 18 28  1  0
 19 20  1  0
 20 21  1  6
 21 22  1  6
 22 23  2  0
 22 27  1  0
 23 24  1  0
 24 25  2  0
 25 26  1  0
 26 27  2  0
 28 29  2  0
 30 31  1  0
 31 32  2  0
 32 33  1  0
M  END
$$$$
