
     RDKit          3D

 33 36  0  0  0  0  0  0  0  0999 V2000
  -27.3939   51.1434    8.2034 C   0  0  0  0  0  0  0  0  0  0  0  0
  -25.6342   46.4570   11.1162 C   0  0  0  0  0  0  0  0  0  0  0  0
  -25.8447   51.0407    5.1577 C   0  0  0  0  0  0  0  0  0  0  0  0
  -26.1410   52.2301    5.8685 N   0  0  0  0  0  0  0  0  0  0  0  0
  -27.1861   53.0159    5.2747 C   0  0  0  0  0  0  0  0  0  0  0  0
  -26.1698   52.2009    7.5434 S   0  0  1  0  0  6  0  0  0  0  0  0
  -26.4337   53.6072    8.0807 O   0  0  0  0  0  0  0  0  0  0  0  0
  -24.8154   51.7556    8.0643 O   0  0  0  0  0  0  0  0  0  0  0  0
  -26.9798   49.9506    8.8447 C   0  0  0  0  0  0  0  0  0  0  0  0
  -27.8647   49.0396    9.3334 C   0  0  0  0  0  0  0  0  0  0  0  0
  -27.4556   47.8453    9.9755 N   0  0  0  0  0  0  0  0  0  0  0  0
  -26.0850   47.5617   10.2681 C   0  0  0  0  0  0  0  0  0  0  0  0
  -25.2330   48.3180    9.7568 O   0  0  0  0  0  0  0  0  0  0  0  0
  -26.5515   45.3692   11.2072 N   0  0  0  0  0  0  0  0  0  0  0  0
  -26.4811   44.1585   10.4869 C   0  0  0  0  0  0  0  0  0  0  0  0
  -25.6022   43.8004    9.6280 O   0  0  0  0  0  0  0  0  0  0  0  0
  -27.5956   43.3758   10.8945 N   0  0  0  0  0  0  0  0  0  0  0  0
  -28.5446   44.2091   11.6105 C   0  0  2  0  0  0  0  0  0  0  0  0
  -29.0779   43.4946   12.8174 C   0  0  0  0  0  0  0  0  0  0  0  0
  -30.0336   44.3075   13.6128 C   0  0  0  0  0  0  0  0  0  0  0  0
  -30.9920   45.1460   12.8420 C   0  0  0  0  0  0  0  0  0  0  0  0
  -30.8236   45.0731   11.3703 C   0  0  0  0  0  0  0  0  0  0  0  0
  -31.8659   45.4640   10.5811 C   0  0  0  0  0  0  0  0  0  0  0  0
  -31.8220   45.4392    9.2019 C   0  0  0  0  0  0  0  0  0  0  0  0
  -30.6700   44.9983    8.5901 C   0  0  0  0  0  0  0  0  0  0  0  0
  -29.6091   44.6004    9.4008 C   0  0  0  0  0  0  0  0  0  0  0  0
  -29.6686   44.6311   10.7716 C   0  0  0  0  0  0  0  0  0  0  0  0
  -27.6968   45.3335   12.0495 C   0  0  0  0  0  0  0  0  0  0  0  0
  -27.9617   46.1259   13.0192 O   0  0  0  0  0  0  0  0  0  0  0  0
  -29.2049   49.3212    9.1809 C   0  0  0  0  0  0  0  0  0  0  0  0
  -29.6448   50.4703    8.5644 C   0  0  0  0  0  0  0  0  0  0  0  0
  -28.7210   51.3961    8.0692 C   0  0  0  0  0  0  0  0  0  0  0  0
  -29.3022   52.8995    7.3567 Cl  0  0  0  0  0  0  0  0  0  0  0  0
  1  6  1  0
  9  1  2  0
  1 32  1  0
 12  2  1  0
  2 14  1  0
  4  3  1  0
  4  5  1  0
  6  4  1  6
  6  7  2  0
  6  8  2  0
 10  9  1  0
 11 10  1  0
 10 30  2  0
 11 12  1  0
 12 13  2  0
 14 15  1  0
 14 28  1  0
 15 16  2  0
 15 17  1  0
 17 18  1  0
 18 19  1  1
 18 27  1  0
 18 28  1  0
 19 20  1  0
 20 21  1  0
 21 22  1  0
 22 23  2  0
 22 27  1  0
 23 24  1  0
 24 25  2  0
 25 26  1  0
 26 27  2  0
 28 29  2  0
 30 31  1  0
 31 32  2  0
 32 33  1  0
M  END
$$$$
