
     RDKit          3D

 33 36  0  0  0  0  0  0  0  0999 V2000
  -27.2195   51.2072    8.9261 C   0  0  0  0  0  0  0  0  0  0  0  0
  -27.7901   45.5068    9.4433 C   0  0  0  0  0  0  0  0  0  0  0  0
  -25.5895   51.5582   11.9915 C   0  0  0  0  0  0  0  0  0  0  0  0
  -25.0016   51.2591   10.7375 N   0  0  0  0  0  0  0  0  0  0  0  0
  -24.5681   49.8960   10.6101 C   0  0  0  0  0  0  0  0  0  0  0  0
  -25.6709   51.9010    9.3421 S   0  0  1  0  0  6  0  0  0  0  0  0
  -24.7275   51.6695    8.1621 O   0  0  0  0  0  0  0  0  0  0  0  0
  -25.8425   53.4001    9.5073 O   0  0  0  0  0  0  0  0  0  0  0  0
  -27.4419   49.8372    9.2080 C   0  0  0  0  0  0  0  0  0  0  0  0
  -28.5934   49.1990    8.8639 C   0  0  0  0  0  0  0  0  0  0  0  0
  -28.8207   47.8292    9.1437 N   0  0  0  0  0  0  0  0  0  0  0  0
  -27.7878   46.9604    9.6157 C   0  0  0  0  0  0  0  0  0  0  0  0
  -26.8304   47.4971   10.2112 O   0  0  0  0  0  0  0  0  0  0  0  0
  -28.9918   44.8637    9.8621 N   0  0  0  0  0  0  0  0  0  0  0  0
  -29.1302   43.9944   10.9642 C   0  0  0  0  0  0  0  0  0  0  0  0
  -28.2284   43.6165   11.7902 O   0  0  0  0  0  0  0  0  0  0  0  0
  -30.4942   43.5956   11.0007 N   0  0  0  0  0  0  0  0  0  0  0  0
  -31.1390   43.9381    9.7459 C   0  0  2  0  0  0  0  0  0  0  0  0
  -32.5058   44.5087    9.9865 C   0  0  0  0  0  0  0  0  0  0  0  0
  -33.2083   44.9092    8.7403 C   0  0  0  0  0  0  0  0  0  0  0  0
  -33.0470   44.0052    7.5688 C   0  0  0  0  0  0  0  0  0  0  0  0
  -32.1639   42.8387    7.8123 C   0  0  0  0  0  0  0  0  0  0  0  0
  -32.2645   41.7669    6.9738 C   0  0  0  0  0  0  0  0  0  0  0  0
  -31.4947   40.6289    7.1042 C   0  0  0  0  0  0  0  0  0  0  0  0
  -30.5790   40.5704    8.1309 C   0  0  0  0  0  0  0  0  0  0  0  0
  -30.4807   41.6676    8.9838 C   0  0  0  0  0  0  0  0  0  0  0  0
  -31.2540   42.7924    8.8406 C   0  0  0  0  0  0  0  0  0  0  0  0
  -30.2565   44.9995    9.2260 C   0  0  0  0  0  0  0  0  0  0  0  0
  -30.5881   45.8782    8.3563 O   0  0  0  0  0  0  0  0  0  0  0  0
  -29.5562   49.9443    8.2186 C   0  0  0  0  0  0  0  0  0  0  0  0
  -29.3759   51.2776    7.9290 C   0  0  0  0  0  0  0  0  0  0  0  0
  -28.1866   51.9177    8.2913 C   0  0  0  0  0  0  0  0  0  0  0  0
  -28.0070   53.6439    7.9858 Cl  0  0  0  0  0  0  0  0  0  0  0  0
  1  6  1  0
  9  1  2  0
  1 32  1  0
 12  2  1  0
  2 14  1  0
  4  3  1  0
  4  5  1  0
  6  4  1  1
  6  7  2  0
  6  8  2  0
 10  9  1  0
 11 10  1  0
 10 30  2  0
 11 12  1  0
 12 13  2  0
 14 15  1  0
 14 28  1  0
 15 16  2  0
 15 17  1  0
 17 18  1  0
 18 19  1  1
 18 27  1  0
 18 28  1  0
 19 20  1  0
 20 21  1  0
 21 22  1  0
 22 23  2  0
 22 27  1  0
 23 24  1  0
 24 25  2  0
 25 26  1  0
 26 27  2  0
 28 29  2  0
 30 31  1  0
 31 32  2  0
 32 33  1  0
M  END
$$$$
