
     RDKit          3D

 33 36  0  0  0  0  0  0  0  0999 V2000
  -32.9992   43.9848    8.1033 C   0  0  0  0  0  0  0  0  0  0  0  0
  -29.9637   45.2829   12.7067 C   0  0  0  0  0  0  0  0  0  0  0  0
  -32.7657   42.2590    5.5348 C   0  0  0  0  0  0  0  0  0  0  0  0
  -31.8706   43.3981    5.5592 N   0  0  0  0  0  0  0  0  0  0  0  0
  -30.6044   42.9985    6.1115 C   0  0  0  0  0  0  0  0  0  0  0  0
  -32.6176   44.6318    6.5175 S   0  0  1  0  0  6  0  0  0  0  0  0
  -33.8987   45.0614    5.8510 O   0  0  0  0  0  0  0  0  0  0  0  0
  -31.7504   45.8201    6.7010 O   0  0  0  0  0  0  0  0  0  0  0  0
  -32.0847   44.1110    9.1615 C   0  0  0  0  0  0  0  0  0  0  0  0
  -32.3698   43.6124   10.4011 C   0  0  0  0  0  0  0  0  0  0  0  0
  -31.5474   43.6730   11.5364 N   0  0  0  0  0  0  0  0  0  0  0  0
  -30.2711   44.2749   11.6464 C   0  0  0  0  0  0  0  0  0  0  0  0
  -29.3819   43.9512   10.8327 O   0  0  0  0  0  0  0  0  0  0  0  0
  -28.9380   46.2070   12.2595 N   0  0  0  0  0  0  0  0  0  0  0  0
  -27.5647   46.2076   12.6789 C   0  0  0  0  0  0  0  0  0  0  0  0
  -27.0938   45.3772   13.5075 O   0  0  0  0  0  0  0  0  0  0  0  0
  -26.8755   47.2591   12.0228 N   0  0  0  0  0  0  0  0  0  0  0  0
  -27.6697   47.6763   10.9189 C   0  0  2  0  0  0  0  0  0  0  0  0
  -27.3190   46.8165    9.7116 C   0  0  0  0  0  0  0  0  0  0  0  0
  -28.0019   47.3521    8.4864 C   0  0  0  0  0  0  0  0  0  0  0  0
  -27.4319   48.6979    8.1205 C   0  0  0  0  0  0  0  0  0  0  0  0
  -27.4421   49.5878    9.3112 C   0  0  0  0  0  0  0  0  0  0  0  0
  -27.3325   50.9544    9.0470 C   0  0  0  0  0  0  0  0  0  0  0  0
  -27.3340   51.8427   10.0906 C   0  0  0  0  0  0  0  0  0  0  0  0
  -27.4420   51.3837   11.3648 C   0  0  0  0  0  0  0  0  0  0  0  0
  -27.5495   50.0350   11.6141 C   0  0  0  0  0  0  0  0  0  0  0  0
  -27.5520   49.1162   10.6047 C   0  0  0  0  0  0  0  0  0  0  0  0
  -29.0368   47.2846   11.3417 C   0  0  0  0  0  0  0  0  0  0  0  0
  -30.1454   47.7949   10.9742 O   0  0  0  0  0  0  0  0  0  0  0  0
  -33.6073   42.9844   10.5311 C   0  0  0  0  0  0  0  0  0  0  0  0
  -34.5024   42.8583    9.5040 C   0  0  0  0  0  0  0  0  0  0  0  0
  -34.2028   43.3626    8.2687 C   0  0  0  0  0  0  0  0  0  0  0  0
  -35.3164   43.2296    6.9102 Cl  0  0  0  0  0  0  0  0  0  0  0  0
  1  6  1  0
  9  1  2  0
  1 32  1  0
 12  2  1  0
  2 14  1  6
  3  4  1  6
  5  4  1  6
  6  4  1  6
  6  7  2  0
  6  8  2  0
 10  9  1  0
 11 10  1  0
 10 30  2  0
 11 12  1  0
 12 13  2  0
 14 15  1  0
 14 28  1  0
 15 16  2  0
 15 17  1  0
 18 17  1  1
 19 18  1  1
 18 27  1  0
 18 28  1  0
 19 20  1  0
 20 21  1  6
 21 22  1  6
 22 23  2  0
 22 27  1  0
 23 24  1  0
 24 25  2  0
 25 26  1  0
 26 27  2  0
 28 29  2  0
 30 31  1  0
 31 32  2  0
 32 33  1  0
M  END
$$$$
