
     RDKit          3D

 33 36  0  0  0  0  0  0  0  0999 V2000
  -31.7025   46.0399    7.5047 C   0  0  0  0  0  0  0  0  0  0  0  0
  -28.0050   45.4364   12.1428 C   0  0  0  0  0  0  0  0  0  0  0  0
  -32.8343   42.8191    7.7113 C   0  0  0  0  0  0  0  0  0  0  0  0
  -33.3662   43.8351    6.8258 N   0  0  0  0  0  0  0  0  0  0  0  0
  -34.0290   43.2027    5.7172 C   0  0  0  0  0  0  0  0  0  0  0  0
  -32.0406   44.8146    6.2950 S   0  0  1  0  0  6  0  0  0  0  0  0
  -32.4219   45.4995    5.0084 O   0  0  0  0  0  0  0  0  0  0  0  0
  -30.8014   44.0319    6.0729 O   0  0  0  0  0  0  0  0  0  0  0  0
  -30.8070   45.7754    8.5536 C   0  0  0  0  0  0  0  0  0  0  0  0
  -30.5344   46.7208    9.5013 C   0  0  0  0  0  0  0  0  0  0  0  0
  -29.6640   46.5839   10.5933 N   0  0  0  0  0  0  0  0  0  0  0  0
  -28.9882   45.4145   11.0169 C   0  0  0  0  0  0  0  0  0  0  0  0
  -29.2238   44.3385   10.4302 O   0  0  0  0  0  0  0  0  0  0  0  0
  -26.6880   45.0320   11.6868 N   0  0  0  0  0  0  0  0  0  0  0  0
  -25.9321   43.9156   12.1810 C   0  0  0  0  0  0  0  0  0  0  0  0
  -26.3495   43.1468   13.0934 O   0  0  0  0  0  0  0  0  0  0  0  0
  -24.6964   43.8439   11.4887 N   0  0  0  0  0  0  0  0  0  0  0  0
  -24.8099   44.6387   10.3146 C   0  0  2  0  0  0  0  0  0  0  0  0
  -25.3818   43.7786    9.1953 C   0  0  0  0  0  0  0  0  0  0  0  0
  -25.3395   44.5329    7.8978 C   0  0  0  0  0  0  0  0  0  0  0  0
  -23.9116   44.7442    7.4663 C   0  0  0  0  0  0  0  0  0  0  0  0
  -23.1308   45.3332    8.5857 C   0  0  0  0  0  0  0  0  0  0  0  0
  -21.9310   45.9511    8.2282 C   0  0  0  0  0  0  0  0  0  0  0  0
  -21.1517   46.5193    9.2018 C   0  0  0  0  0  0  0  0  0  0  0  0
  -21.5553   46.4743   10.4984 C   0  0  0  0  0  0  0  0  0  0  0  0
  -22.7395   45.8630   10.8399 C   0  0  0  0  0  0  0  0  0  0  0  0
  -23.5456   45.2849    9.9023 C   0  0  0  0  0  0  0  0  0  0  0  0
  -25.8645   45.6132   10.6880 C   0  0  0  0  0  0  0  0  0  0  0  0
  -26.0462   46.7858   10.2226 O   0  0  0  0  0  0  0  0  0  0  0  0
  -31.1972   47.9377    9.3507 C   0  0  0  0  0  0  0  0  0  0  0  0
  -32.0706   48.2015    8.3310 C   0  0  0  0  0  0  0  0  0  0  0  0
  -32.3334   47.2449    7.3898 C   0  0  0  0  0  0  0  0  0  0  0  0
  -33.4481   47.5285    6.0556 Cl  0  0  0  0  0  0  0  0  0  0  0  0
  1  6  1  0
  9  1  2  0
  1 32  1  0
 12  2  1  0
  2 14  1  6
  3  4  1  6
  5  4  1  6
  6  4  1  1
  6  7  2  0
  6  8  2  0
 10  9  1  0
 11 10  1  0
 10 30  2  0
 11 12  1  0
 12 13  2  0
 14 15  1  0
 14 28  1  0
 15 16  2  0
 15 17  1  0
 18 17  1  1
 19 18  1  1
 18 27  1  0
 18 28  1  0
 19 20  1  0
 20 21  1  6
 21 22  1  6
 22 23  2  0
 22 27  1  0
 23 24  1  0
 24 25  2  0
 25 26  1  0
 26 27  2  0
 28 29  2  0
 30 31  1  0
 31 32  2  0
 32 33  1  0
M  END
$$$$
