
     RDKit          3D

 33 36  0  0  0  0  0  0  0  0999 V2000
  -32.2918   42.5557    7.4544 C   0  0  0  0  0  0  0  0  0  0  0  0
  -28.8893   44.8407   11.5615 C   0  0  0  0  0  0  0  0  0  0  0  0
  -34.7132   44.5026    9.0590 C   0  0  0  0  0  0  0  0  0  0  0  0
  -34.9035   43.6092    7.9759 N   0  0  0  0  0  0  0  0  0  0  0  0
  -35.1333   44.2627    6.7180 C   0  0  0  0  0  0  0  0  0  0  0  0
  -33.9569   42.2307    7.8717 S   0  0  1  0  0  6  0  0  0  0  0  0
  -34.5262   41.2915    6.8087 O   0  0  0  0  0  0  0  0  0  0  0  0
  -33.9871   41.4955    9.1994 O   0  0  0  0  0  0  0  0  0  0  0  0
  -31.4324   43.0650    8.4582 C   0  0  0  0  0  0  0  0  0  0  0  0
  -30.1385   43.4039    8.2080 C   0  0  0  0  0  0  0  0  0  0  0  0
  -29.2749   43.9136    9.2083 N   0  0  0  0  0  0  0  0  0  0  0  0
  -29.7443   44.3049   10.5010 C   0  0  0  0  0  0  0  0  0  0  0  0
  -30.9667   44.1728   10.7189 O   0  0  0  0  0  0  0  0  0  0  0  0
  -27.6012   45.2674   11.1234 N   0  0  0  0  0  0  0  0  0  0  0  0
  -26.3613   44.8325   11.6362 C   0  0  0  0  0  0  0  0  0  0  0  0
  -26.1468   43.9886   12.5744 O   0  0  0  0  0  0  0  0  0  0  0  0
  -25.3538   45.5183   10.9045 N   0  0  0  0  0  0  0  0  0  0  0  0
  -25.9465   46.6210   10.1692 C   0  0  2  0  0  0  0  0  0  0  0  0
  -25.3773   46.7055    8.7833 C   0  0  0  0  0  0  0  0  0  0  0  0
  -25.9666   47.7976    7.9666 C   0  0  0  0  0  0  0  0  0  0  0  0
  -26.2327   49.0819    8.6704 C   0  0  0  0  0  0  0  0  0  0  0  0
  -25.8992   49.0690   10.1155 C   0  0  0  0  0  0  0  0  0  0  0  0
  -25.7239   50.2652   10.7483 C   0  0  0  0  0  0  0  0  0  0  0  0
  -25.4120   50.3743   12.0882 C   0  0  0  0  0  0  0  0  0  0  0  0
  -25.2703   49.2197   12.8249 C   0  0  0  0  0  0  0  0  0  0  0  0
  -25.4504   48.0012   12.1736 C   0  0  0  0  0  0  0  0  0  0  0  0
  -25.7604   47.9098   10.8398 C   0  0  0  0  0  0  0  0  0  0  0  0
  -27.3610   46.2110   10.0868 C   0  0  0  0  0  0  0  0  0  0  0  0
  -28.2073   46.6396    9.2276 O   0  0  0  0  0  0  0  0  0  0  0  0
  -29.6819   43.2320    6.9192 C   0  0  0  0  0  0  0  0  0  0  0  0
  -30.4873   42.7388    5.9182 C   0  0  0  0  0  0  0  0  0  0  0  0
  -31.8144   42.3945    6.1938 C   0  0  0  0  0  0  0  0  0  0  0  0
  -32.8058   41.6881    4.9196 Cl  0  0  0  0  0  0  0  0  0  0  0  0
  1  6  1  0
  9  1  2  0
  1 32  1  0
 12  2  1  0
  2 14  1  0
  4  3  1  0
  4  5  1  0
  6  4  1  1
  6  7  2  0
  6  8  2  0
 10  9  1  0
 11 10  1  0
 10 30  2  0
 11 12  1  0
 12 13  2  0
 14 15  1  0
 14 28  1  0
 15 16  2  0
 15 17  1  0
 17 18  1  0
 18 19  1  6
 18 27  1  0
 18 28  1  0
 19 20  1  0
 20 21  1  0
 21 22  1  0
 22 23  2  0
 22 27  1  0
 23 24  1  0
 24 25  2  0
 25 26  1  0
 26 27  2  0
 28 29  2  0
 30 31  1  0
 31 32  2  0
 32 33  1  0
M  END
$$$$
