
     RDKit          3D

 33 36  0  0  0  0  0  0  0  0999 V2000
  -22.7613   46.2800    8.8370 C   0  0  0  0  0  0  0  0  0  0  0  0
  -27.6914   43.9831   10.8365 C   0  0  0  0  0  0  0  0  0  0  0  0
  -21.7271   42.9772    9.2924 C   0  0  0  0  0  0  0  0  0  0  0  0
  -20.9437   44.0667    8.8376 N   0  0  0  0  0  0  0  0  0  0  0  0
  -20.6414   44.0184    7.4346 C   0  0  0  0  0  0  0  0  0  0  0  0
  -21.2590   45.6055    9.4205 S   0  0  1  0  0  6  0  0  0  0  0  0
  -20.1341   46.5550    9.0090 O   0  0  0  0  0  0  0  0  0  0  0  0
  -21.3018   45.5723   10.9374 O   0  0  0  0  0  0  0  0  0  0  0  0
  -23.9746   45.8000    9.3877 C   0  0  0  0  0  0  0  0  0  0  0  0
  -25.1920   46.2233    8.9512 C   0  0  0  0  0  0  0  0  0  0  0  0
  -26.4082   45.7464    9.4987 N   0  0  0  0  0  0  0  0  0  0  0  0
  -26.4591   44.6549   10.4210 C   0  0  0  0  0  0  0  0  0  0  0  0
  -25.3699   44.2649   10.8909 O   0  0  0  0  0  0  0  0  0  0  0  0
  -28.4544   44.6954   11.8079 N   0  0  0  0  0  0  0  0  0  0  0  0
  -28.3807   44.5323   13.2070 C   0  0  0  0  0  0  0  0  0  0  0  0
  -27.6334   43.7327   13.8708 O   0  0  0  0  0  0  0  0  0  0  0  0
  -29.3139   45.4427   13.7737 N   0  0  0  0  0  0  0  0  0  0  0  0
  -30.2067   45.9363   12.7407 C   0  0  2  0  0  0  0  0  0  0  0  0
  -30.4378   47.4109   12.8949 C   0  0  0  0  0  0  0  0  0  0  0  0
  -31.3209   47.9848   11.8472 C   0  0  0  0  0  0  0  0  0  0  0  0
  -32.4858   47.1549   11.4349 C   0  0  0  0  0  0  0  0  0  0  0  0
  -32.5726   45.8399   12.1154 C   0  0  0  0  0  0  0  0  0  0  0  0
  -33.7740   45.1929   12.1188 C   0  0  0  0  0  0  0  0  0  0  0  0
  -33.9717   43.9665   12.7199 C   0  0  0  0  0  0  0  0  0  0  0  0
  -32.9046   43.3642   13.3481 C   0  0  0  0  0  0  0  0  0  0  0  0
  -31.6804   44.0294   13.3415 C   0  0  0  0  0  0  0  0  0  0  0  0
  -31.5002   45.2493   12.7389 C   0  0  0  0  0  0  0  0  0  0  0  0
  -29.4223   45.6953   11.5150 C   0  0  0  0  0  0  0  0  0  0  0  0
  -29.5967   46.2904   10.3954 O   0  0  0  0  0  0  0  0  0  0  0  0
  -25.2064   47.1537    7.9348 C   0  0  0  0  0  0  0  0  0  0  0  0
  -24.0481   47.6437    7.3761 C   0  0  0  0  0  0  0  0  0  0  0  0
  -22.8056   47.1982    7.8380 C   0  0  0  0  0  0  0  0  0  0  0  0
  -21.3336   47.8973    7.1673 Cl  0  0  0  0  0  0  0  0  0  0  0  0
  1  6  1  0
  9  1  2  0
  1 32  1  0
 12  2  1  0
  2 14  1  0
  4  3  1  0
  4  5  1  0
  6  4  1  6
  6  7  2  0
  6  8  2  0
 10  9  1  0
 11 10  1  0
 10 30  2  0
 11 12  1  0
 12 13  2  0
 14 15  1  0
 14 28  1  0
 15 16  2  0
 15 17  1  0
 17 18  1  0
 18 19  1  1
 18 27  1  0
 18 28  1  0
 19 20  1  0
 20 21  1  0
 21 22  1  0
 22 23  2  0
 22 27  1  0
 23 24  1  0
 24 25  2  0
 25 26  1  0
 26 27  2  0
 28 29  2  0
 30 31  1  0
 31 32  2  0
 32 33  1  0
M  END
$$$$
