
     RDKit          3D

 33 36  0  0  0  0  0  0  0  0999 V2000
  -32.3791   44.6130   11.4274 C   0  0  0  0  0  0  0  0  0  0  0  0
  -26.7954   45.3253   12.7146 C   0  0  0  0  0  0  0  0  0  0  0  0
  -32.1564   48.3902   11.6270 C   0  0  0  0  0  0  0  0  0  0  0  0
  -33.0005   47.3368   12.0578 N   0  0  0  0  0  0  0  0  0  0  0  0
  -34.1523   47.7796   12.7924 C   0  0  0  0  0  0  0  0  0  0  0  0
  -33.2947   46.0469   11.0299 S   0  0  1  0  0  6  0  0  0  0  0  0
  -32.9428   46.4383    9.5950 O   0  0  0  0  0  0  0  0  0  0  0  0
  -34.7723   45.7008   11.0636 O   0  0  0  0  0  0  0  0  0  0  0  0
  -31.0021   44.7540   11.7268 C   0  0  0  0  0  0  0  0  0  0  0  0
  -30.1990   43.6868   11.9874 C   0  0  0  0  0  0  0  0  0  0  0  0
  -28.8214   43.8225   12.2874 N   0  0  0  0  0  0  0  0  0  0  0  0
  -28.2362   45.0732   12.6589 C   0  0  0  0  0  0  0  0  0  0  0  0
  -29.0235   45.9974   12.9510 O   0  0  0  0  0  0  0  0  0  0  0  0
  -26.0518   44.7446   11.6455 N   0  0  0  0  0  0  0  0  0  0  0  0
  -25.2108   43.6157   11.7335 C   0  0  0  0  0  0  0  0  0  0  0  0
  -24.9515   42.9024   12.7642 O   0  0  0  0  0  0  0  0  0  0  0  0
  -24.6813   43.3987   10.4322 N   0  0  0  0  0  0  0  0  0  0  0  0
  -24.9163   44.5690    9.6058 C   0  0  2  0  0  0  0  0  0  0  0  0
  -25.3576   44.1698    8.2283 C   0  0  0  0  0  0  0  0  0  0  0  0
  -25.6448   45.3255    7.3402 C   0  0  0  0  0  0  0  0  0  0  0  0
  -24.7220   46.4886    7.4466 C   0  0  0  0  0  0  0  0  0  0  0  0
  -23.6568   46.3340    8.4670 C   0  0  0  0  0  0  0  0  0  0  0  0
  -22.5525   47.1301    8.3733 C   0  0  0  0  0  0  0  0  0  0  0  0
  -21.5008   47.0739    9.2650 C   0  0  0  0  0  0  0  0  0  0  0  0
  -21.5673   46.1701   10.3017 C   0  0  0  0  0  0  0  0  0  0  0  0
  -22.6971   45.3598   10.3925 C   0  0  0  0  0  0  0  0  0  0  0  0
  -23.7349   45.4281    9.4970 C   0  0  0  0  0  0  0  0  0  0  0  0
  -26.0411   45.2186   10.3047 C   0  0  0  0  0  0  0  0  0  0  0  0
  -26.8530   46.0578    9.7806 O   0  0  0  0  0  0  0  0  0  0  0  0
  -30.7811   42.4384   11.9498 C   0  0  0  0  0  0  0  0  0  0  0  0
  -32.1157   42.2626   11.6637 C   0  0  0  0  0  0  0  0  0  0  0  0
  -32.9265   43.3709   11.3996 C   0  0  0  0  0  0  0  0  0  0  0  0
  -34.6494   43.1328   11.1163 Cl  0  0  0  0  0  0  0  0  0  0  0  0
  1  6  1  0
  9  1  2  0
  1 32  1  0
 12  2  1  0
  2 14  1  0
  4  3  1  0
  4  5  1  0
  6  4  1  1
  6  7  2  0
  6  8  2  0
 10  9  1  0
 11 10  1  0
 10 30  2  0
 11 12  1  0
 12 13  2  0
 14 15  1  0
 14 28  1  0
 15 16  2  0
 15 17  1  0
 17 18  1  0
 18 19  1  6
 18 27  1  0
 18 28  1  0
 19 20  1  0
 20 21  1  0
 21 22  1  0
 22 23  2  0
 22 27  1  0
 23 24  1  0
 24 25  2  0
 25 26  1  0
 26 27  2  0
 28 29  2  0
 30 31  1  0
 31 32  2  0
 32 33  1  0
M  END
$$$$
