
     RDKit          3D

 33 36  0  0  0  0  0  0  0  0999 V2000
  -31.9691   44.4064    7.9882 C   0  0  0  0  0  0  0  0  0  0  0  0
  -28.7387   46.0821   11.1349 C   0  0  0  0  0  0  0  0  0  0  0  0
  -34.4330   43.0336   10.6143 C   0  0  0  0  0  0  0  0  0  0  0  0
  -34.1109   44.2222    9.8507 N   0  0  0  0  0  0  0  0  0  0  0  0
  -35.2812   45.0507    9.7409 C   0  0  0  0  0  0  0  0  0  0  0  0
  -33.5503   43.7100    8.2945 S   0  0  1  0  0  6  0  0  0  0  0  0
  -34.5074   44.2053    7.2416 O   0  0  0  0  0  0  0  0  0  0  0  0
  -33.4345   42.2363    8.1825 O   0  0  0  0  0  0  0  0  0  0  0  0
  -31.5425   45.5410    8.6973 C   0  0  0  0  0  0  0  0  0  0  0  0
  -30.3137   46.0925    8.4691 C   0  0  0  0  0  0  0  0  0  0  0  0
  -29.7706   47.2183    9.1066 N   0  0  0  0  0  0  0  0  0  0  0  0
  -28.8724   47.2412   10.2003 C   0  0  0  0  0  0  0  0  0  0  0  0
  -28.1755   48.2600   10.3844 O   0  0  0  0  0  0  0  0  0  0  0  0
  -27.4929   45.3740   10.9051 N   0  0  0  0  0  0  0  0  0  0  0  0
  -27.3237   43.9481   10.9004 C   0  0  0  0  0  0  0  0  0  0  0  0
  -28.2726   43.1380   11.1030 O   0  0  0  0  0  0  0  0  0  0  0  0
  -25.9644   43.6391   10.6395 N   0  0  0  0  0  0  0  0  0  0  0  0
  -25.3505   44.8032   10.0998 C   0  0  2  0  0  0  0  0  0  0  0  0
  -25.5450   44.8028    8.5892 C   0  0  0  0  0  0  0  0  0  0  0  0
  -24.7509   45.9169    7.9707 C   0  0  0  0  0  0  0  0  0  0  0  0
  -23.2760   45.6496    8.1221 C   0  0  0  0  0  0  0  0  0  0  0  0
  -22.9649   45.3410    9.5426 C   0  0  0  0  0  0  0  0  0  0  0  0
  -21.6245   45.4705    9.9111 C   0  0  0  0  0  0  0  0  0  0  0  0
  -21.2543   45.2044   11.2035 C   0  0  0  0  0  0  0  0  0  0  0  0
  -22.1934   44.8193   12.1067 C   0  0  0  0  0  0  0  0  0  0  0  0
  -23.5115   44.6948   11.7331 C   0  0  0  0  0  0  0  0  0  0  0  0
  -23.9233   44.9499   10.4570 C   0  0  0  0  0  0  0  0  0  0  0  0
  -26.1990   45.8932   10.6410 C   0  0  0  0  0  0  0  0  0  0  0  0
  -25.8724   47.1069   10.8527 O   0  0  0  0  0  0  0  0  0  0  0  0
  -29.5355   45.4581    7.5021 C   0  0  0  0  0  0  0  0  0  0  0  0
  -29.9456   44.3526    6.8080 C   0  0  0  0  0  0  0  0  0  0  0  0
  -31.1785   43.8118    7.0476 C   0  0  0  0  0  0  0  0  0  0  0  0
  -31.7587   42.3898    6.1848 Cl  0  0  0  0  0  0  0  0  0  0  0  0
  1  6  1  0
  9  1  2  0
  1 32  1  0
 12  2  1  0
  2 14  1  6
  3  4  1  6
  5  4  1  6
  6  4  1  1
  6  7  2  0
  6  8  2  0
 10  9  1  0
 11 10  1  0
 10 30  2  0
 11 12  1  0
 12 13  2  0
 14 15  1  0
 14 28  1  0
 15 16  2  0
 15 17  1  0
 18 17  1  1
 19 18  1  1
 18 27  1  0
 18 28  1  0
 19 20  1  0
 20 21  1  6
 21 22  1  6
 22 23  2  0
 22 27  1  0
 23 24  1  0
 24 25  2  0
 25 26  1  0
 26 27  2  0
 28 29  2  0
 30 31  1  0
 31 32  2  0
 32 33  1  0
M  END
$$$$
