
     RDKit          3D

 33 36  0  0  0  0  0  0  0  0999 V2000
  -28.9233   51.2524    9.1830 C   0  0  0  0  0  0  0  0  0  0  0  0
  -30.2703   46.2856   12.0871 C   0  0  0  0  0  0  0  0  0  0  0  0
  -28.2541   52.4043    5.4191 C   0  0  0  0  0  0  0  0  0  0  0  0
  -28.1519   51.3899    6.4487 N   0  0  0  0  0  0  0  0  0  0  0  0
  -28.2120   50.0870    5.8429 C   0  0  0  0  0  0  0  0  0  0  0  0
  -29.4604   51.6332    7.5565 S   0  0  1  0  0  6  0  0  0  0  0  0
  -30.5899   50.7051    7.1921 O   0  0  0  0  0  0  0  0  0  0  0  0
  -29.9645   53.0273    7.5521 O   0  0  0  0  0  0  0  0  0  0  0  0
  -29.2934   50.0406    9.7885 C   0  0  0  0  0  0  0  0  0  0  0  0
  -28.8814   49.7316   11.0539 C   0  0  0  0  0  0  0  0  0  0  0  0
  -29.1792   48.5610   11.7681 N   0  0  0  0  0  0  0  0  0  0  0  0
  -30.2804   47.6918   11.5798 C   0  0  0  0  0  0  0  0  0  0  0  0
  -31.2845   48.1168   10.9727 O   0  0  0  0  0  0  0  0  0  0  0  0
  -28.9383   45.7156   12.0036 N   0  0  0  0  0  0  0  0  0  0  0  0
  -28.0877   45.3972   13.1158 C   0  0  0  0  0  0  0  0  0  0  0  0
  -28.4224   45.5874   14.3197 O   0  0  0  0  0  0  0  0  0  0  0  0
  -26.8680   44.8583   12.6327 N   0  0  0  0  0  0  0  0  0  0  0  0
  -27.0711   44.4689   11.2798 C   0  0  2  0  0  0  0  0  0  0  0  0
  -27.6042   43.0424   11.2564 C   0  0  0  0  0  0  0  0  0  0  0  0
  -27.6520   42.5372    9.8433 C   0  0  0  0  0  0  0  0  0  0  0  0
  -26.2556   42.3856    9.2984 C   0  0  0  0  0  0  0  0  0  0  0  0
  -25.4937   43.6439    9.5129 C   0  0  0  0  0  0  0  0  0  0  0  0
  -24.3536   43.8038    8.7231 C   0  0  0  0  0  0  0  0  0  0  0  0
  -23.5953   44.9371    8.8597 C   0  0  0  0  0  0  0  0  0  0  0  0
  -23.9615   45.8875    9.7589 C   0  0  0  0  0  0  0  0  0  0  0  0
  -25.0869   45.7200   10.5322 C   0  0  0  0  0  0  0  0  0  0  0  0
  -25.8702   44.6071   10.4285 C   0  0  0  0  0  0  0  0  0  0  0  0
  -28.1868   45.3505   10.8566 C   0  0  0  0  0  0  0  0  0  0  0  0
  -28.4686   45.7443    9.6776 O   0  0  0  0  0  0  0  0  0  0  0  0
  -28.0853   50.6880   11.6818 C   0  0  0  0  0  0  0  0  0  0  0  0
  -27.7213   51.8703   11.0972 C   0  0  0  0  0  0  0  0  0  0  0  0
  -28.1416   52.1656    9.8298 C   0  0  0  0  0  0  0  0  0  0  0  0
  -27.7039   53.6716    9.0276 Cl  0  0  0  0  0  0  0  0  0  0  0  0
  1  6  1  0
  9  1  2  0
  1 32  1  0
 12  2  1  0
  2 14  1  6
  3  4  1  6
  5  4  1  6
  6  4  1  6
  6  7  2  0
  6  8  2  0
 10  9  1  0
 11 10  1  0
 10 30  2  0
 11 12  1  0
 12 13  2  0
 14 15  1  0
 14 28  1  0
 15 16  2  0
 15 17  1  0
 18 17  1  1
 19 18  1  1
 18 27  1  0
 18 28  1  0
 19 20  1  0
 20 21  1  6
 21 22  1  6
 22 23  2  0
 22 27  1  0
 23 24  1  0
 24 25  2  0
 25 26  1  0
 26 27  2  0
 28 29  2  0
 30 31  1  0
 31 32  2  0
 32 33  1  0
M  END
$$$$
