
     RDKit          3D

 33 36  0  0  0  0  0  0  0  0999 V2000
  -33.3917   43.4423    5.8332 C   0  0  0  0  0  0  0  0  0  0  0  0
  -30.2873   44.7909   10.4616 C   0  0  0  0  0  0  0  0  0  0  0  0
  -37.2675   42.3318    5.7401 C   0  0  0  0  0  0  0  0  0  0  0  0
  -36.0648   42.6993    6.4598 N   0  0  0  0  0  0  0  0  0  0  0  0
  -36.4215   43.4477    7.6349 C   0  0  0  0  0  0  0  0  0  0  0  0
  -35.0780   43.6360    5.3887 S   0  0  1  0  0  6  0  0  0  0  0  0
  -35.4490   45.0898    5.5263 O   0  0  0  0  0  0  0  0  0  0  0  0
  -35.2298   43.2344    3.9697 O   0  0  0  0  0  0  0  0  0  0  0  0
  -32.7865   44.3350    6.7326 C   0  0  0  0  0  0  0  0  0  0  0  0
  -31.4747   44.1949    7.0876 C   0  0  0  0  0  0  0  0  0  0  0  0
  -30.7553   45.0136    7.9714 N   0  0  0  0  0  0  0  0  0  0  0  0
  -31.0787   45.3286    9.3130 C   0  0  0  0  0  0  0  0  0  0  0  0
  -32.0526   46.0762    9.5367 O   0  0  0  0  0  0  0  0  0  0  0  0
  -29.2377   45.7171   10.8445 N   0  0  0  0  0  0  0  0  0  0  0  0
  -28.4452   45.6438   12.0397 C   0  0  0  0  0  0  0  0  0  0  0  0
  -28.5855   44.7365   12.9085 O   0  0  0  0  0  0  0  0  0  0  0  0
  -27.5259   46.7235   12.0585 N   0  0  0  0  0  0  0  0  0  0  0  0
  -27.4482   47.2505   10.7396 C   0  0  2  0  0  0  0  0  0  0  0  0
  -26.3860   46.4797    9.9668 C   0  0  0  0  0  0  0  0  0  0  0  0
  -26.1486   47.1311    8.6350 C   0  0  0  0  0  0  0  0  0  0  0  0
  -25.5141   48.4844    8.8244 C   0  0  0  0  0  0  0  0  0  0  0  0
  -26.3039   49.2766    9.8034 C   0  0  0  0  0  0  0  0  0  0  0  0
  -26.0897   50.6560    9.7798 C   0  0  0  0  0  0  0  0  0  0  0  0
  -26.7794   51.4579   10.6512 C   0  0  0  0  0  0  0  0  0  0  0  0
  -27.6600   50.9023   11.5240 C   0  0  0  0  0  0  0  0  0  0  0  0
  -27.8637   49.5418   11.5389 C   0  0  0  0  0  0  0  0  0  0  0  0
  -27.1981   48.7068   10.6887 C   0  0  0  0  0  0  0  0  0  0  0  0
  -28.7605   46.8669   10.1635 C   0  0  0  0  0  0  0  0  0  0  0  0
  -29.3962   47.4373    9.2174 O   0  0  0  0  0  0  0  0  0  0  0  0
  -30.8003   43.1244    6.5027 C   0  0  0  0  0  0  0  0  0  0  0  0
  -31.3843   42.2514    5.6258 C   0  0  0  0  0  0  0  0  0  0  0  0
  -32.6985   42.4046    5.2801 C   0  0  0  0  0  0  0  0  0  0  0  0
  -33.5024   41.3114    4.1568 Cl  0  0  0  0  0  0  0  0  0  0  0  0
  1  6  1  0
  9  1  2  0
  1 32  1  0
 12  2  1  0
  2 14  1  6
  3  4  1  6
  5  4  1  6
  6  4  1  1
  6  7  2  0
  6  8  2  0
 10  9  1  0
 11 10  1  0
 10 30  2  0
 11 12  1  0
 12 13  2  0
 14 15  1  0
 14 28  1  0
 15 16  2  0
 15 17  1  0
 18 17  1  1
 19 18  1  1
 18 27  1  0
 18 28  1  0
 19 20  1  0
 20 21  1  6
 21 22  1  6
 22 23  2  0
 22 27  1  0
 23 24  1  0
 24 25  2  0
 25 26  1  0
 26 27  2  0
 28 29  2  0
 30 31  1  0
 31 32  2  0
 32 33  1  0
M  END
$$$$
