
     RDKit          3D

 33 36  0  0  0  0  0  0  0  0999 V2000
  -32.7951   42.9108    5.4939 C   0  0  0  0  0  0  0  0  0  0  0  0
  -29.9675   46.3074    9.3164 C   0  0  0  0  0  0  0  0  0  0  0  0
  -34.0340   45.2034    3.3459 C   0  0  0  0  0  0  0  0  0  0  0  0
  -34.7207   44.7912    4.5148 N   0  0  0  0  0  0  0  0  0  0  0  0
  -36.0879   45.2274    4.5689 C   0  0  0  0  0  0  0  0  0  0  0  0
  -34.4671   43.2480    5.1158 S   0  0  1  0  0  6  0  0  0  0  0  0
  -34.9285   42.2117    4.0913 O   0  0  0  0  0  0  0  0  0  0  0  0
  -35.2951   43.0530    6.3729 O   0  0  0  0  0  0  0  0  0  0  0  0
  -32.1920   43.6118    6.5664 C   0  0  0  0  0  0  0  0  0  0  0  0
  -30.8798   43.4582    6.8926 C   0  0  0  0  0  0  0  0  0  0  0  0
  -30.2720   44.1569    7.9643 N   0  0  0  0  0  0  0  0  0  0  0  0
  -30.3910   45.5729    8.1232 C   0  0  0  0  0  0  0  0  0  0  0  0
  -30.8917   46.2053    7.1700 O   0  0  0  0  0  0  0  0  0  0  0  0
  -29.1616   45.5536   10.2196 N   0  0  0  0  0  0  0  0  0  0  0  0
  -29.5766   44.4326   10.9683 C   0  0  0  0  0  0  0  0  0  0  0  0
  -30.7307   43.8793   10.9883 O   0  0  0  0  0  0  0  0  0  0  0  0
  -28.4506   44.0077   11.7249 N   0  0  0  0  0  0  0  0  0  0  0  0
  -27.4331   45.0432   11.7136 C   0  0  2  0  0  0  0  0  0  0  0  0
  -26.0685   44.4485   11.5238 C   0  0  0  0  0  0  0  0  0  0  0  0
  -24.9830   45.4613   11.4722 C   0  0  0  0  0  0  0  0  0  0  0  0
  -25.0990   46.6058   12.4169 C   0  0  0  0  0  0  0  0  0  0  0  0
  -26.3206   46.5847   13.2576 C   0  0  0  0  0  0  0  0  0  0  0  0
  -26.3315   47.3320   14.3993 C   0  0  0  0  0  0  0  0  0  0  0  0
  -27.4114   47.3889   15.2567 C   0  0  0  0  0  0  0  0  0  0  0  0
  -28.5348   46.6555   14.9462 C   0  0  0  0  0  0  0  0  0  0  0  0
  -28.5180   45.8944   13.7794 C   0  0  0  0  0  0  0  0  0  0  0  0
  -27.4355   45.8486   12.9370 C   0  0  0  0  0  0  0  0  0  0  0  0
  -27.7949   45.8171   10.5111 C   0  0  0  0  0  0  0  0  0  0  0  0
  -27.0049   46.5846    9.8592 O   0  0  0  0  0  0  0  0  0  0  0  0
  -30.1414   42.5800    6.1295 C   0  0  0  0  0  0  0  0  0  0  0  0
  -30.6934   41.8806    5.0806 C   0  0  0  0  0  0  0  0  0  0  0  0
  -32.0440   42.0500    4.7603 C   0  0  0  0  0  0  0  0  0  0  0  0
  -32.7527   41.0854    3.4670 Cl  0  0  0  0  0  0  0  0  0  0  0  0
  1  6  1  0
  9  1  2  0
  1 32  1  0
 12  2  1  0
  2 14  1  0
  4  3  1  0
  4  5  1  0
  6  4  1  6
  6  7  2  0
  6  8  2  0
 10  9  1  0
 11 10  1  0
 10 30  2  0
 11 12  1  0
 12 13  2  0
 14 15  1  0
 14 28  1  0
 15 16  2  0
 15 17  1  0
 17 18  1  0
 18 19  1  6
 18 27  1  0
 18 28  1  0
 19 20  1  0
 20 21  1  0
 21 22  1  0
 22 23  2  0
 22 27  1  0
 23 24  1  0
 24 25  2  0
 25 26  1  0
 26 27  2  0
 28 29  2  0
 30 31  1  0
 31 32  2  0
 32 33  1  0
M  END
$$$$
