
     RDKit          3D

 33 36  0  0  0  0  0  0  0  0999 V2000
  -34.2467   45.0888    8.8926 C   0  0  0  0  0  0  0  0  0  0  0  0
  -29.4607   43.7419   11.9456 C   0  0  0  0  0  0  0  0  0  0  0  0
  -37.4433   42.7303    7.9748 C   0  0  0  0  0  0  0  0  0  0  0  0
  -36.0292   43.0340    8.0615 N   0  0  0  0  0  0  0  0  0  0  0  0
  -35.3261   41.8905    8.5773 C   0  0  0  0  0  0  0  0  0  0  0  0
  -35.8505   44.4079    9.1002 S   0  0  1  0  0  6  0  0  0  0  0  0
  -36.0040   43.9632   10.5315 O   0  0  0  0  0  0  0  0  0  0  0  0
  -36.8432   45.4726    8.8196 O   0  0  0  0  0  0  0  0  0  0  0  0
  -33.2674   44.9167    9.8844 C   0  0  0  0  0  0  0  0  0  0  0  0
  -32.0148   45.4409    9.7349 C   0  0  0  0  0  0  0  0  0  0  0  0
  -30.9518   45.3405   10.6453 N   0  0  0  0  0  0  0  0  0  0  0  0
  -30.7839   44.3823   11.6735 C   0  0  0  0  0  0  0  0  0  0  0  0
  -31.7713   44.0674   12.3686 O   0  0  0  0  0  0  0  0  0  0  0  0
  -28.3810   44.6984   11.7857 N   0  0  0  0  0  0  0  0  0  0  0  0
  -27.8988   45.5998   12.7940 C   0  0  0  0  0  0  0  0  0  0  0  0
  -28.3811   45.6548   13.9611 O   0  0  0  0  0  0  0  0  0  0  0  0
  -26.8370   46.3739   12.2604 N   0  0  0  0  0  0  0  0  0  0  0  0
  -26.3793   45.7271   11.0791 C   0  0  2  0  0  0  0  0  0  0  0  0
  -25.3184   44.7034   11.4619 C   0  0  0  0  0  0  0  0  0  0  0  0
  -24.6834   44.1376   10.2247 C   0  0  0  0  0  0  0  0  0  0  0  0
  -23.8865   45.2022    9.5166 C   0  0  0  0  0  0  0  0  0  0  0  0
  -24.7280   46.4116    9.3197 C   0  0  0  0  0  0  0  0  0  0  0  0
  -24.2827   47.3075    8.3459 C   0  0  0  0  0  0  0  0  0  0  0  0
  -25.0025   48.4481    8.1029 C   0  0  0  0  0  0  0  0  0  0  0  0
  -26.1366   48.6917    8.8103 C   0  0  0  0  0  0  0  0  0  0  0  0
  -26.5666   47.8022    9.7677 C   0  0  0  0  0  0  0  0  0  0  0  0
  -25.8803   46.6546   10.0416 C   0  0  0  0  0  0  0  0  0  0  0  0
  -27.5759   44.9635   10.6477 C   0  0  0  0  0  0  0  0  0  0  0  0
  -27.8786   44.5841    9.4692 O   0  0  0  0  0  0  0  0  0  0  0  0
  -31.7894   46.1423    8.5516 C   0  0  0  0  0  0  0  0  0  0  0  0
  -32.7392   46.3133    7.5817 C   0  0  0  0  0  0  0  0  0  0  0  0
  -33.9888   45.7825    7.7458 C   0  0  0  0  0  0  0  0  0  0  0  0
  -35.2505   45.9708    6.5309 Cl  0  0  0  0  0  0  0  0  0  0  0  0
  1  6  1  0
  9  1  2  0
  1 32  1  0
 12  2  1  0
  2 14  1  6
  3  4  1  6
  5  4  1  6
  6  4  1  6
  6  7  2  0
  6  8  2  0
 10  9  1  0
 11 10  1  0
 10 30  2  0
 11 12  1  0
 12 13  2  0
 14 15  1  0
 14 28  1  0
 15 16  2  0
 15 17  1  0
 18 17  1  1
 19 18  1  1
 18 27  1  0
 18 28  1  0
 19 20  1  0
 20 21  1  6
 21 22  1  6
 22 23  2  0
 22 27  1  0
 23 24  1  0
 24 25  2  0
 25 26  1  0
 26 27  2  0
 28 29  2  0
 30 31  1  0
 31 32  2  0
 32 33  1  0
M  END
$$$$
