
     RDKit          3D

 33 36  0  0  0  0  0  0  0  0999 V2000
  -25.6447   43.4966    8.3596 C   0  0  0  0  0  0  0  0  0  0  0  0
  -27.8927   47.4613   11.7524 C   0  0  0  0  0  0  0  0  0  0  0  0
  -22.9686   45.6985    9.1539 C   0  0  0  0  0  0  0  0  0  0  0  0
  -23.1656   44.3432    9.5172 N   0  0  0  0  0  0  0  0  0  0  0  0
  -23.5695   44.1613   10.8832 C   0  0  0  0  0  0  0  0  0  0  0  0
  -23.9101   43.3024    8.4358 S   0  0  1  0  0  6  0  0  0  0  0  0
  -23.6229   41.8540    8.8308 O   0  0  0  0  0  0  0  0  0  0  0  0
  -23.3383   43.5229    7.0470 O   0  0  0  0  0  0  0  0  0  0  0  0
  -26.2659   44.3737    9.2818 C   0  0  0  0  0  0  0  0  0  0  0  0
  -27.6154   44.5399    9.3353 C   0  0  0  0  0  0  0  0  0  0  0  0
  -28.2414   45.4159   10.2556 N   0  0  0  0  0  0  0  0  0  0  0  0
  -27.5074   46.1441   11.2433 C   0  0  0  0  0  0  0  0  0  0  0  0
  -26.4733   45.6031   11.6874 O   0  0  0  0  0  0  0  0  0  0  0  0
  -29.2833   47.7554   11.6390 N   0  0  0  0  0  0  0  0  0  0  0  0
  -29.9636   48.1187   10.4580 C   0  0  0  0  0  0  0  0  0  0  0  0
  -29.4829   48.2545    9.2795 O   0  0  0  0  0  0  0  0  0  0  0  0
  -31.3254   48.3153   10.8155 N   0  0  0  0  0  0  0  0  0  0  0  0
  -31.4454   48.4042   12.2596 C   0  0  2  0  0  0  0  0  0  0  0  0
  -32.6378   47.6330   12.7446 C   0  0  0  0  0  0  0  0  0  0  0  0
  -32.7993   47.6589   14.2211 C   0  0  0  0  0  0  0  0  0  0  0  0
  -32.5069   48.9523   14.8973 C   0  0  0  0  0  0  0  0  0  0  0  0
  -32.0540   50.0313   13.9859 C   0  0  0  0  0  0  0  0  0  0  0  0
  -32.1464   51.3223   14.4180 C   0  0  0  0  0  0  0  0  0  0  0  0
  -31.7556   52.4051   13.6568 C   0  0  0  0  0  0  0  0  0  0  0  0
  -31.2469   52.1731   12.3985 C   0  0  0  0  0  0  0  0  0  0  0  0
  -31.1550   50.8530   11.9626 C   0  0  0  0  0  0  0  0  0  0  0  0
  -31.5481   49.7867   12.7322 C   0  0  0  0  0  0  0  0  0  0  0  0
  -30.2152   47.7282   12.7129 C   0  0  0  0  0  0  0  0  0  0  0  0
  -30.0367   47.2144   13.8715 O   0  0  0  0  0  0  0  0  0  0  0  0
  -28.3739   43.8119    8.4446 C   0  0  0  0  0  0  0  0  0  0  0  0
  -27.8056   42.9509    7.5337 C   0  0  0  0  0  0  0  0  0  0  0  0
  -26.4167   42.7935    7.4920 C   0  0  0  0  0  0  0  0  0  0  0  0
  -25.7023   41.7496    6.2652 Cl  0  0  0  0  0  0  0  0  0  0  0  0
  1  6  1  0
  9  1  2  0
  1 32  1  0
 12  2  1  0
  2 14  1  0
  4  3  1  0
  4  5  1  0
  6  4  1  1
  6  7  2  0
  6  8  2  0
 10  9  1  0
 11 10  1  0
 10 30  2  0
 11 12  1  0
 12 13  2  0
 14 15  1  0
 14 28  1  0
 15 16  2  0
 15 17  1  0
 17 18  1  0
 18 19  1  1
 18 27  1  0
 18 28  1  0
 19 20  1  0
 20 21  1  0
 21 22  1  0
 22 23  2  0
 22 27  1  0
 23 24  1  0
 24 25  2  0
 25 26  1  0
 26 27  2  0
 28 29  2  0
 30 31  1  0
 31 32  2  0
 32 33  1  0
M  END
$$$$
