
     RDKit          3D

 33 36  0  0  0  0  0  0  0  0999 V2000
  -26.8450   47.9898    9.5291 C   0  0  0  0  0  0  0  0  0  0  0  0
  -31.1208   44.3606   10.8350 C   0  0  0  0  0  0  0  0  0  0  0  0
  -26.2033   47.4984   12.6566 C   0  0  0  0  0  0  0  0  0  0  0  0
  -25.3731   48.4319   11.9225 N   0  0  0  0  0  0  0  0  0  0  0  0
  -25.9573   49.7444   11.9885 C   0  0  0  0  0  0  0  0  0  0  0  0
  -25.2680   47.8679   10.2887 S   0  0  1  0  0  6  0  0  0  0  0  0
  -24.8469   46.4213   10.2960 O   0  0  0  0  0  0  0  0  0  0  0  0
  -24.3028   48.6444    9.4743 O   0  0  0  0  0  0  0  0  0  0  0  0
  -27.8600   47.0726    9.8468 C   0  0  0  0  0  0  0  0  0  0  0  0
  -29.0923   47.1569    9.2632 C   0  0  0  0  0  0  0  0  0  0  0  0
  -30.1864   46.3088    9.4929 N   0  0  0  0  0  0  0  0  0  0  0  0
  -30.6095   45.7613   10.7277 C   0  0  0  0  0  0  0  0  0  0  0  0
  -30.5518   46.4724   11.7516 O   0  0  0  0  0  0  0  0  0  0  0  0
  -32.1731   44.1189    9.8652 N   0  0  0  0  0  0  0  0  0  0  0  0
  -33.4399   44.7930    9.8122 C   0  0  0  0  0  0  0  0  0  0  0  0
  -33.7792   45.6940   10.6311 O   0  0  0  0  0  0  0  0  0  0  0  0
  -34.1959   44.2833    8.7259 N   0  0  0  0  0  0  0  0  0  0  0  0
  -33.3030   43.5888    7.8635 C   0  0  2  0  0  0  0  0  0  0  0  0
  -32.7138   44.5803    6.8687 C   0  0  0  0  0  0  0  0  0  0  0  0
  -31.9138   43.8487    5.8299 C   0  0  0  0  0  0  0  0  0  0  0  0
  -32.8227   43.0078    4.9716 C   0  0  0  0  0  0  0  0  0  0  0  0
  -33.6908   42.1651    5.8354 C   0  0  0  0  0  0  0  0  0  0  0  0
  -34.2819   41.0652    5.2108 C   0  0  0  0  0  0  0  0  0  0  0  0
  -35.0969   40.2375    5.9379 C   0  0  0  0  0  0  0  0  0  0  0  0
  -35.3187   40.4970    7.2530 C   0  0  0  0  0  0  0  0  0  0  0  0
  -34.7313   41.5835    7.8588 C   0  0  0  0  0  0  0  0  0  0  0  0
  -33.9131   42.4332    7.1720 C   0  0  0  0  0  0  0  0  0  0  0  0
  -32.2055   43.2012    8.7835 C   0  0  0  0  0  0  0  0  0  0  0  0
  -31.3991   42.2207    8.6697 O   0  0  0  0  0  0  0  0  0  0  0  0
  -29.2603   48.1973    8.3509 C   0  0  0  0  0  0  0  0  0  0  0  0
  -28.2755   49.0939    8.0373 C   0  0  0  0  0  0  0  0  0  0  0  0
  -27.0469   48.9967    8.6299 C   0  0  0  0  0  0  0  0  0  0  0  0
  -25.7421   50.1225    8.2649 Cl  0  0  0  0  0  0  0  0  0  0  0  0
  1  6  1  0
  9  1  2  0
  1 32  1  0
 12  2  1  0
  2 14  1  6
  3  4  1  6
  5  4  1  6
  6  4  1  1
  6  7  2  0
  6  8  2  0
 10  9  1  0
 11 10  1  0
 10 30  2  0
 11 12  1  0
 12 13  2  0
 14 15  1  0
 14 28  1  0
 15 16  2  0
 15 17  1  0
 18 17  1  1
 19 18  1  1
 18 27  1  0
 18 28  1  0
 19 20  1  0
 20 21  1  6
 21 22  1  6
 22 23  2  0
 22 27  1  0
 23 24  1  0
 24 25  2  0
 25 26  1  0
 26 27  2  0
 28 29  2  0
 30 31  1  0
 31 32  2  0
 32 33  1  0
M  END
$$$$
