
     RDKit          3D

 56 58  0  0  0  0  0  0  0  0999 V2000
   26.9287  -33.0344   36.3442 O   0  0  0  0  0  0  0  0  0  0  0  0
   27.8810  -33.7209   35.1004 P   0  0  1  0  0  5  0  0  0  0  0  0
   29.4354  -33.9405   35.7163 O   0  0  0  0  0  0  0  0  0  0  0  0
   27.2924  -35.0066   34.6141 O   0  0  0  0  0  0  0  0  0  0  0  0
   27.9677  -32.5656   33.8653 O   0  0  0  0  0  0  0  0  0  0  0  0
   28.7101  -32.9917   32.7889 C   0  0  1  0  0  0  0  0  0  0  0  0
   27.8673  -33.7024   31.7347 C   0  0  1  0  0  0  0  0  0  0  0  0
   26.5420  -33.5644   32.1436 O   0  0  0  0  0  0  0  0  0  0  0  0
   28.0829  -32.8370   30.5370 C   0  0  2  0  0  0  0  0  0  0  0  0
   28.1262  -33.5703   29.3027 N   0  0  0  0  0  0  0  0  0  0  0  0
   27.2582  -33.3863   28.2966 C   0  0  0  0  0  0  0  0  0  0  0  0
   26.2056  -32.5673   28.1270 N   0  0  0  0  0  0  0  0  0  0  0  0
   25.4710  -32.5642   27.0034 C   0  0  0  0  0  0  0  0  0  0  0  0
   25.7857  -33.4062   25.9985 N   0  0  0  0  0  0  0  0  0  0  0  0
   26.8213  -34.2579   26.0835 C   0  0  0  0  0  0  0  0  0  0  0  0
   27.1449  -35.1404   25.0186 N   0  0  0  0  0  0  0  0  0  0  0  0
   27.5626  -34.2445   27.2472 C   0  0  0  0  0  0  0  0  0  0  0  0
   28.6431  -34.9383   27.6769 N   0  0  0  0  0  0  0  0  0  0  0  0
   28.9835  -34.5343   28.9127 C   0  0  0  0  0  0  0  0  0  0  0  0
   29.3582  -32.2755   30.7532 O   0  0  0  0  0  0  0  0  0  0  0  0
   29.1734  -31.7449   32.0276 C   0  0  2  0  0  0  0  0  0  0  0  0
   30.4946  -31.2840   32.5495 C   0  0  0  0  0  0  0  0  0  0  0  0
   30.3136  -30.7939   33.8410 O   0  0  0  0  0  0  0  0  0  0  0  0
   31.7310  -31.0183   34.7345 P   0  0  2  0  0  5  0  0  0  0  0  0
   31.6139  -32.4142   35.3482 O   0  0  0  0  0  0  0  0  0  0  0  0
   31.7560  -29.9080   35.9825 O   0  0  0  0  0  0  0  0  0  0  0  0
   33.1197  -30.9907   33.7995 O   0  0  0  0  0  0  0  0  0  0  0  0
   34.4707  -30.3994   34.6309 P   0  0  1  0  0  5  0  0  0  0  0  0
   34.0679  -28.9467   35.4366 O   0  0  0  0  0  0  0  0  0  0  0  0
   34.9674  -31.3666   35.6597 O   0  0  0  0  0  0  0  0  0  0  0  0
   35.6357  -29.9993   33.4804 O   0  0  0  0  0  0  0  0  0  0  0  0
   36.2822  -28.8014   33.7344 C   0  0  0  0  0  0  0  0  0  0  0  0
   37.1002  -28.4872   32.4932 C   0  0  1  0  0  0  0  0  0  0  0  0
   38.2686  -27.6300   32.9644 C   0  0  0  0  0  0  0  0  0  0  0  0
   37.5260  -29.7910   31.8994 C   0  0  0  0  0  0  0  0  0  0  0  0
   36.2077  -27.6838   31.5633 C   0  0  1  0  0  0  0  0  0  0  0  0
   35.1785  -27.1712   32.3916 O   0  0  0  0  0  0  0  0  0  0  0  0
   36.9470  -26.5734   30.9292 C   0  0  0  0  0  0  0  0  0  0  0  0
   36.7021  -26.2602   29.7184 O   0  0  0  0  0  0  0  0  0  0  0  0
   37.9379  -25.8198   31.6078 N   0  0  0  0  0  0  0  0  0  0  0  0
   38.3954  -24.5675   30.9940 C   0  0  0  0  0  0  0  0  0  0  0  0
   39.6479  -24.9088   30.2383 C   0  0  0  0  0  0  0  0  0  0  0  0
   40.1914  -23.6465   29.6233 C   0  0  0  0  0  0  0  0  0  0  0  0
   39.5702  -22.6107   29.8275 O   0  0  0  0  0  0  0  0  0  0  0  0
   41.3490  -23.6629   28.8609 N   0  0  0  0  0  0  0  0  0  0  0  0
   41.9653  -22.6848   28.0790 C   0  0  0  0  0  0  0  0  0  0  0  0
   41.5905  -21.2738   28.0741 C   0  0  0  0  0  0  0  0  0  0  0  0
   42.5537  -20.3095   28.4966 N   0  0  0  0  0  0  0  0  0  0  0  0
   42.6562  -20.1236   29.9452 C   0  0  0  0  0  0  0  0  0  0  0  0
   41.8489  -20.6956   30.7161 O   0  0  0  0  0  0  0  0  0  0  0  0
   43.7091  -19.2522   30.4701 C   0  0  1  0  0  0  0  0  0  0  0  0
   43.1421  -18.3573   31.5584 C   0  0  0  0  0  0  0  0  0  0  0  0
   45.0645  -20.1642   31.1093 S   0  0  1  0  0  6  0  0  0  0  0  0
   44.6282  -21.0791   32.2337 O   0  0  0  0  0  0  0  0  0  0  0  0
   45.6436  -21.1573   29.8841 O   0  0  0  0  0  0  0  0  0  0  0  0
   46.1085  -19.2477   31.6283 O   0  0  0  0  0  0  0  0  0  0  0  0
  2  1  1  1
  2  3  1  0
  2  4  2  0
  2  5  1  0
  6  5  1  1
  6  7  1  0
  6 21  1  0
  7  8  1  1
  7  9  1  0
  9 10  1  6
  9 20  1  0
 10 11  1  0
 10 19  1  0
 11 12  2  0
 11 17  1  0
 12 13  1  0
 13 14  2  0
 14 15  1  0
 15 16  1  0
 15 17  2  0
 17 18  1  0
 18 19  2  0
 20 21  1  0
 21 22  1  1
 22 23  1  0
 23 24  1  0
 24 25  2  0
 24 26  1  1
 24 27  1  0
 27 28  1  0
 28 29  1  1
 28 30  2  0
 28 31  1  0
 31 32  1  0
 32 33  1  0
 33 34  1  1
 33 35  1  0
 33 36  1  0
 36 37  1  1
 36 38  1  0
 38 39  2  0
 38 40  1  0
 40 41  1  0
 41 42  1  0
 42 43  1  0
 43 44  2  0
 43 45  1  0
 45 46  1  0
 46 47  1  0
 47 48  1  0
 48 49  1  0
 49 50  2  0
 49 51  1  0
 51 52  1  1
 51 53  1  0
 53 54  2  0
 53 55  1  6
 53 56  2  0
M  END
$$$$
