
     RDKit          3D

 56 58  0  0  0  0  0  0  0  0999 V2000
   28.7578  -35.9457   35.7358 O   0  0  0  0  0  0  0  0  0  0  0  0
   29.4403  -34.6207   34.8971 P   0  0  1  0  0  5  0  0  0  0  0  0
   29.9541  -33.5027   36.0504 O   0  0  0  0  0  0  0  0  0  0  0  0
   30.5640  -35.0593   34.0134 O   0  0  0  0  0  0  0  0  0  0  0  0
   28.1846  -33.9134   34.0082 O   0  0  0  0  0  0  0  0  0  0  0  0
   28.4746  -33.8081   32.6679 C   0  0  1  0  0  0  0  0  0  0  0  0
   27.6033  -34.7129   31.8025 C   0  0  1  0  0  0  0  0  0  0  0  0
   26.6588  -35.2738   32.6605 O   0  0  0  0  0  0  0  0  0  0  0  0
   26.9120  -33.7224   30.9244 C   0  0  2  0  0  0  0  0  0  0  0  0
   26.6864  -34.2021   29.5894 N   0  0  0  0  0  0  0  0  0  0  0  0
   25.5369  -34.7622   29.1841 C   0  0  0  0  0  0  0  0  0  0  0  0
   24.3721  -35.0239   29.8022 N   0  0  0  0  0  0  0  0  0  0  0  0
   23.3387  -35.6050   29.1723 C   0  0  0  0  0  0  0  0  0  0  0  0
   23.4557  -35.9452   27.8730 N   0  0  0  0  0  0  0  0  0  0  0  0
   24.5836  -35.7200   27.1785 C   0  0  0  0  0  0  0  0  0  0  0  0
   24.6962  -36.0815   25.8095 N   0  0  0  0  0  0  0  0  0  0  0  0
   25.6331  -35.1219   27.8455 C   0  0  0  0  0  0  0  0  0  0  0  0
   26.8833  -34.7505   27.4818 N   0  0  0  0  0  0  0  0  0  0  0  0
   27.5183  -34.1972   28.5291 C   0  0  0  0  0  0  0  0  0  0  0  0
   27.8207  -32.6465   30.8512 O   0  0  0  0  0  0  0  0  0  0  0  0
   28.0284  -32.4157   32.2090 C   0  0  2  0  0  0  0  0  0  0  0  0
   29.1483  -31.4396   32.3618 C   0  0  0  0  0  0  0  0  0  0  0  0
   29.0820  -30.8865   33.6388 O   0  0  0  0  0  0  0  0  0  0  0  0
   30.4511  -29.9337   33.9137 P   0  0  2  0  0  5  0  0  0  0  0  0
   30.4172  -29.5845   35.4024 O   0  0  0  0  0  0  0  0  0  0  0  0
   30.2946  -28.5132   33.0484 O   0  0  0  0  0  0  0  0  0  0  0  0
   31.8911  -30.7335   33.6134 O   0  0  0  0  0  0  0  0  0  0  0  0
   32.1953  -30.9603   31.9636 P   0  0  1  0  0  5  0  0  0  0  0  0
   33.7001  -31.7428   31.7518 O   0  0  0  0  0  0  0  0  0  0  0  0
   31.1479  -31.8053   31.3081 O   0  0  0  0  0  0  0  0  0  0  0  0
   32.3489  -29.4343   31.2645 O   0  0  0  0  0  0  0  0  0  0  0  0
   33.4455  -28.7208   31.7180 C   0  0  0  0  0  0  0  0  0  0  0  0
   33.7584  -27.6924   30.6442 C   0  0  1  0  0  0  0  0  0  0  0  0
   32.7544  -27.9343   29.5237 C   0  0  0  0  0  0  0  0  0  0  0  0
   33.6296  -26.3417   31.2712 C   0  0  0  0  0  0  0  0  0  0  0  0
   35.1664  -27.9774   30.1514 C   0  0  1  0  0  0  0  0  0  0  0  0
   35.2422  -27.3632   28.8765 O   0  0  0  0  0  0  0  0  0  0  0  0
   36.1829  -27.3985   31.0530 C   0  0  0  0  0  0  0  0  0  0  0  0
   37.4080  -27.3887   30.7019 O   0  0  0  0  0  0  0  0  0  0  0  0
   35.8647  -26.8412   32.3172 N   0  0  0  0  0  0  0  0  0  0  0  0
   36.9454  -26.2161   33.0893 C   0  0  0  0  0  0  0  0  0  0  0  0
   37.9568  -25.7465   32.0829 C   0  0  0  0  0  0  0  0  0  0  0  0
   38.3214  -24.3215   32.4043 C   0  0  0  0  0  0  0  0  0  0  0  0
   38.1258  -23.9376   33.5510 O   0  0  0  0  0  0  0  0  0  0  0  0
   38.8586  -23.4850   31.4382 N   0  0  0  0  0  0  0  0  0  0  0  0
   39.3723  -22.1891   31.5068 C   0  0  0  0  0  0  0  0  0  0  0  0
   39.8284  -21.4192   30.3534 C   0  0  0  0  0  0  0  0  0  0  0  0
   40.0759  -22.1066   29.1277 N   0  0  0  0  0  0  0  0  0  0  0  0
   41.4885  -22.2784   28.7831 C   0  0  0  0  0  0  0  0  0  0  0  0
   42.3844  -21.8801   29.5652 O   0  0  0  0  0  0  0  0  0  0  0  0
   41.8298  -22.9124   27.5083 C   0  0  1  0  0  0  0  0  0  0  0  0
   42.0151  -21.8505   26.4384 C   0  0  0  0  0  0  0  0  0  0  0  0
   43.2834  -23.8877   27.6231 S   0  0  1  0  0  6  0  0  0  0  0  0
   44.3828  -23.1488   28.3560 O   0  0  0  0  0  0  0  0  0  0  0  0
   42.9241  -25.2450   28.5458 O   0  0  0  0  0  0  0  0  0  0  0  0
   43.7778  -24.2440   26.2712 O   0  0  0  0  0  0  0  0  0  0  0  0
  2  1  1  1
  2  3  1  0
  2  4  2  0
  2  5  1  0
  6  5  1  1
  6  7  1  0
  6 21  1  0
  7  8  1  1
  7  9  1  0
  9 10  1  6
  9 20  1  0
 10 11  1  0
 10 19  1  0
 11 12  2  0
 11 17  1  0
 12 13  1  0
 13 14  2  0
 14 15  1  0
 15 16  1  0
 15 17  2  0
 17 18  1  0
 18 19  2  0
 20 21  1  0
 21 22  1  6
 22 23  1  0
 23 24  1  0
 24 25  2  0
 24 26  1  6
 24 27  1  0
 27 28  1  0
 28 29  1  1
 28 30  2  0
 28 31  1  0
 31 32  1  0
 32 33  1  0
 33 34  1  6
 33 35  1  0
 33 36  1  0
 36 37  1  6
 36 38  1  0
 38 39  2  0
 38 40  1  0
 40 41  1  0
 41 42  1  0
 42 43  1  0
 43 44  2  0
 43 45  1  0
 45 46  1  0
 46 47  1  0
 47 48  1  0
 48 49  1  0
 49 50  2  0
 49 51  1  0
 51 52  1  6
 51 53  1  0
 53 54  2  0
 53 55  1  1
 53 56  2  0
M  END
$$$$
