
     RDKit          3D

 56 58  0  0  0  0  0  0  0  0999 V2000
   31.4609  -33.0301   36.5427 O   0  0  0  0  0  0  0  0  0  0  0  0
   32.8379  -32.5380   35.6558 P   0  0  1  0  0  5  0  0  0  0  0  0
   34.1131  -32.3806   36.7481 O   0  0  0  0  0  0  0  0  0  0  0  0
   33.1589  -33.5127   34.5682 O   0  0  0  0  0  0  0  0  0  0  0  0
   32.4892  -31.0013   35.0360 O   0  0  0  0  0  0  0  0  0  0  0  0
   31.1585  -30.8407   34.7279 C   0  0  1  0  0  0  0  0  0  0  0  0
   30.5309  -29.6400   35.4287 C   0  0  1  0  0  0  0  0  0  0  0  0
   31.5767  -28.9783   36.0702 O   0  0  0  0  0  0  0  0  0  0  0  0
   30.0873  -28.8079   34.2708 C   0  0  2  0  0  0  0  0  0  0  0  0
   28.8593  -28.1028   34.5112 N   0  0  0  0  0  0  0  0  0  0  0  0
   27.6829  -28.7095   34.7287 C   0  0  0  0  0  0  0  0  0  0  0  0
   27.3096  -29.9995   34.7892 N   0  0  0  0  0  0  0  0  0  0  0  0
   26.0415  -30.3706   35.0271 C   0  0  0  0  0  0  0  0  0  0  0  0
   25.0951  -29.4288   35.2142 N   0  0  0  0  0  0  0  0  0  0  0  0
   25.3804  -28.1166   35.1707 C   0  0  0  0  0  0  0  0  0  0  0  0
   24.3758  -27.1324   35.3701 N   0  0  0  0  0  0  0  0  0  0  0  0
   26.6898  -27.7577   34.9248 C   0  0  0  0  0  0  0  0  0  0  0  0
   27.3298  -26.5696   34.8143 N   0  0  0  0  0  0  0  0  0  0  0  0
   28.6345  -26.7750   34.5657 C   0  0  0  0  0  0  0  0  0  0  0  0
   29.8532  -29.7514   33.2492 O   0  0  0  0  0  0  0  0  0  0  0  0
   31.0747  -30.4205   33.2565 C   0  0  2  0  0  0  0  0  0  0  0  0
   30.9644  -31.6260   32.3820 C   0  0  0  0  0  0  0  0  0  0  0  0
   29.6173  -31.9569   32.2523 O   0  0  0  0  0  0  0  0  0  0  0  0
   29.4772  -33.5129   31.6067 P   0  0  2  0  0  5  0  0  0  0  0  0
   28.7501  -33.3407   30.2722 O   0  0  0  0  0  0  0  0  0  0  0  0
   28.4994  -34.4211   32.6119 O   0  0  0  0  0  0  0  0  0  0  0  0
   30.9524  -34.2386   31.2901 O   0  0  0  0  0  0  0  0  0  0  0  0
   31.2243  -34.5028   29.6401 P   0  0  1  0  0  5  0  0  0  0  0  0
   32.0532  -35.9808   29.4165 O   0  0  0  0  0  0  0  0  0  0  0  0
   29.9471  -34.5764   28.8630 O   0  0  0  0  0  0  0  0  0  0  0  0
   32.2603  -33.2884   29.0989 O   0  0  0  0  0  0  0  0  0  0  0  0
   31.9186  -32.0232   29.5461 C   0  0  0  0  0  0  0  0  0  0  0  0
   32.5521  -31.0422   28.5742 C   0  0  1  0  0  0  0  0  0  0  0  0
   34.0544  -31.1193   28.8168 C   0  0  0  0  0  0  0  0  0  0  0  0
   32.1541  -31.4620   27.1960 C   0  0  0  0  0  0  0  0  0  0  0  0
   32.0369  -29.6603   28.9371 C   0  0  1  0  0  0  0  0  0  0  0  0
   30.8997  -29.8924   29.7501 O   0  0  0  0  0  0  0  0  0  0  0  0
   33.0462  -28.8865   29.6880 C   0  0  0  0  0  0  0  0  0  0  0  0
   33.1503  -29.0386   30.9491 O   0  0  0  0  0  0  0  0  0  0  0  0
   33.9253  -27.9615   29.0703 N   0  0  0  0  0  0  0  0  0  0  0  0
   34.8845  -27.2456   29.9199 C   0  0  0  0  0  0  0  0  0  0  0  0
   35.7085  -26.3981   28.9929 C   0  0  0  0  0  0  0  0  0  0  0  0
   36.6598  -25.5750   29.8202 C   0  0  0  0  0  0  0  0  0  0  0  0
   36.8617  -25.9401   30.9719 O   0  0  0  0  0  0  0  0  0  0  0  0
   37.2800  -24.4530   29.2928 N   0  0  0  0  0  0  0  0  0  0  0  0
   38.5636  -23.9312   29.4598 C   0  0  0  0  0  0  0  0  0  0  0  0
   39.7906  -24.6096   29.0527 C   0  0  0  0  0  0  0  0  0  0  0  0
   41.0262  -24.1929   29.6322 N   0  0  0  0  0  0  0  0  0  0  0  0
   42.2094  -24.9198   29.1682 C   0  0  0  0  0  0  0  0  0  0  0  0
   42.0951  -25.8490   28.3337 O   0  0  0  0  0  0  0  0  0  0  0  0
   43.5196  -24.5469   29.7046 C   0  0  1  0  0  0  0  0  0  0  0  0
   44.4160  -24.0576   28.5804 C   0  0  0  0  0  0  0  0  0  0  0  0
   43.3998  -23.3067   30.9396 S   0  0  1  0  0  6  0  0  0  0  0  0
   44.6185  -22.4088   30.9348 O   0  0  0  0  0  0  0  0  0  0  0  0
   42.0857  -22.3291   30.5651 O   0  0  0  0  0  0  0  0  0  0  0  0
   43.2755  -23.9221   32.2831 O   0  0  0  0  0  0  0  0  0  0  0  0
  2  1  1  1
  2  3  1  0
  2  4  2  0
  2  5  1  0
  6  5  1  1
  6  7  1  0
  6 21  1  0
  7  8  1  6
  7  9  1  0
  9 10  1  1
  9 20  1  0
 10 11  1  0
 10 19  1  0
 11 12  2  0
 11 17  1  0
 12 13  1  0
 13 14  2  0
 14 15  1  0
 15 16  1  0
 15 17  2  0
 17 18  1  0
 18 19  2  0
 20 21  1  0
 21 22  1  6
 22 23  1  0
 23 24  1  0
 24 25  2  0
 24 26  1  1
 24 27  1  0
 27 28  1  0
 28 29  1  1
 28 30  2  0
 28 31  1  0
 31 32  1  0
 32 33  1  0
 33 34  1  6
 33 35  1  0
 33 36  1  0
 36 37  1  1
 36 38  1  0
 38 39  2  0
 38 40  1  0
 40 41  1  0
 41 42  1  0
 42 43  1  0
 43 44  2  0
 43 45  1  0
 45 46  1  0
 46 47  1  0
 47 48  1  0
 48 49  1  0
 49 50  2  0
 49 51  1  0
 51 52  1  6
 51 53  1  0
 53 54  2  0
 53 55  1  6
 53 56  2  0
M  END
$$$$
