
     RDKit          3D

 56 58  0  0  0  0  0  0  0  0999 V2000
   19.3496   18.4507   13.9748 O   0  0  0  0  0  0  0  0  0  0  0  0
   20.9243   17.9942   14.4616 P   0  0  1  0  0  5  0  0  0  0  0  0
   21.1941   18.6585   15.9881 O   0  0  0  0  0  0  0  0  0  0  0  0
   21.0789   16.5069   14.4709 O   0  0  0  0  0  0  0  0  0  0  0  0
   21.9970   18.7282   13.3763 O   0  0  0  0  0  0  0  0  0  0  0  0
   23.1665   19.1337   13.9757 C   0  0  1  0  0  0  0  0  0  0  0  0
   24.3022   18.1322   13.7917 C   0  0  1  0  0  0  0  0  0  0  0  0
   23.8181   17.1559   12.9226 O   0  0  0  0  0  0  0  0  0  0  0  0
   25.3162   18.9507   13.0624 C   0  0  2  0  0  0  0  0  0  0  0  0
   26.6705   18.6370   13.4236 N   0  0  0  0  0  0  0  0  0  0  0  0
   27.3686   17.6249   12.8871 C   0  0  0  0  0  0  0  0  0  0  0  0
   27.0783   16.6960   11.9597 N   0  0  0  0  0  0  0  0  0  0  0  0
   27.9633   15.7624   11.5758 C   0  0  0  0  0  0  0  0  0  0  0  0
   29.1922   15.7406   12.1299 N   0  0  0  0  0  0  0  0  0  0  0  0
   29.5663   16.6313   13.0635 C   0  0  0  0  0  0  0  0  0  0  0  0
   30.8640   16.6001   13.6403 N   0  0  0  0  0  0  0  0  0  0  0  0
   28.6411   17.5819   13.4433 C   0  0  0  0  0  0  0  0  0  0  0  0
   28.6621   18.6083   14.3262 N   0  0  0  0  0  0  0  0  0  0  0  0
   27.4780   19.2440   14.3158 C   0  0  0  0  0  0  0  0  0  0  0  0
   25.0491   20.2698   13.4835 O   0  0  0  0  0  0  0  0  0  0  0  0
   23.6890   20.3432   13.1929 C   0  0  2  0  0  0  0  0  0  0  0  0
   23.1440   21.6068   13.7731 C   0  0  0  0  0  0  0  0  0  0  0  0
   24.1799   22.5336   13.8666 O   0  0  0  0  0  0  0  0  0  0  0  0
   23.5775   23.9962   14.4633 P   0  0  2  0  0  5  0  0  0  0  0  0
   23.1041   24.7772   13.2366 O   0  0  0  0  0  0  0  0  0  0  0  0
   24.8356   24.8461   15.1604 O   0  0  0  0  0  0  0  0  0  0  0  0
   22.2631   23.8091   15.4833 O   0  0  0  0  0  0  0  0  0  0  0  0
   22.4514   24.6057   16.9652 P   0  0  1  0  0  5  0  0  0  0  0  0
   22.9377   26.2225   16.6988 O   0  0  0  0  0  0  0  0  0  0  0  0
   21.1793   24.6382   17.7536 O   0  0  0  0  0  0  0  0  0  0  0  0
   23.7193   23.8551   17.7837 O   0  0  0  0  0  0  0  0  0  0  0  0
   23.6081   23.9181   19.1626 C   0  0  0  0  0  0  0  0  0  0  0  0
   23.0164   22.5899   19.6034 C   0  0  1  0  0  0  0  0  0  0  0  0
   22.2807   22.8688   20.9084 C   0  0  0  0  0  0  0  0  0  0  0  0
   22.1165   22.1183   18.5072 C   0  0  0  0  0  0  0  0  0  0  0  0
   24.1793   21.6455   19.8536 C   0  0  1  0  0  0  0  0  0  0  0  0
   24.8644   22.1912   20.9677 O   0  0  0  0  0  0  0  0  0  0  0  0
   23.7101   20.2807   20.1673 C   0  0  0  0  0  0  0  0  0  0  0  0
   23.9403   19.3294   19.3511 O   0  0  0  0  0  0  0  0  0  0  0  0
   23.0002   19.9625   21.3526 N   0  0  0  0  0  0  0  0  0  0  0  0
   22.5935   18.5678   21.5619 C   0  0  0  0  0  0  0  0  0  0  0  0
   22.4233   18.4030   23.0452 C   0  0  0  0  0  0  0  0  0  0  0  0
   21.0978   18.9974   23.4409 C   0  0  0  0  0  0  0  0  0  0  0  0
   20.5380   19.7152   22.6212 O   0  0  0  0  0  0  0  0  0  0  0  0
   20.5387   18.7366   24.6822 N   0  0  0  0  0  0  0  0  0  0  0  0
   19.2496   18.9243   25.1831 C   0  0  0  0  0  0  0  0  0  0  0  0
   18.1433   17.9919   24.9871 C   0  0  0  0  0  0  0  0  0  0  0  0
   17.5743   17.3568   26.1311 N   0  0  0  0  0  0  0  0  0  0  0  0
   16.5034   16.4001   25.8453 C   0  0  0  0  0  0  0  0  0  0  0  0
   16.1608   16.1677   24.6614 O   0  0  0  0  0  0  0  0  0  0  0  0
   15.8386   15.7326   26.9660 C   0  0  1  0  0  0  0  0  0  0  0  0
   14.3561   15.5841   26.6708 C   0  0  0  0  0  0  0  0  0  0  0  0
   16.5297   14.1553   27.3003 S   0  0  1  0  0  6  0  0  0  0  0  0
   16.0361   13.6098   28.6233 O   0  0  0  0  0  0  0  0  0  0  0  0
   15.9908   13.0928   26.1156 O   0  0  0  0  0  0  0  0  0  0  0  0
   18.0096   14.2365   27.3490 O   0  0  0  0  0  0  0  0  0  0  0  0
  2  1  1  6
  2  3  1  0
  2  4  2  0
  2  5  1  0
  6  5  1  6
  6  7  1  0
  6 21  1  0
  7  8  1  6
  7  9  1  0
  9 10  1  1
  9 20  1  0
 10 11  1  0
 10 19  1  0
 11 12  2  0
 11 17  1  0
 12 13  1  0
 13 14  2  0
 14 15  1  0
 15 16  1  0
 15 17  2  0
 17 18  1  0
 18 19  2  0
 20 21  1  0
 21 22  1  1
 22 23  1  0
 23 24  1  0
 24 25  2  0
 24 26  1  1
 24 27  1  0
 27 28  1  0
 28 29  1  6
 28 30  2  0
 28 31  1  0
 31 32  1  0
 32 33  1  0
 33 34  1  1
 33 35  1  0
 33 36  1  0
 36 37  1  1
 36 38  1  0
 38 39  2  0
 38 40  1  0
 40 41  1  0
 41 42  1  0
 42 43  1  0
 43 44  2  0
 43 45  1  0
 45 46  1  0
 46 47  1  0
 47 48  1  0
 48 49  1  0
 49 50  2  0
 49 51  1  0
 51 52  1  6
 51 53  1  0
 53 54  2  0
 53 55  1  6
 53 56  2  0
M  END
$$$$
