
     RDKit          3D

 56 58  0  0  0  0  0  0  0  0999 V2000
   29.2851  -34.8668   35.9821 O   0  0  0  0  0  0  0  0  0  0  0  0
   30.2261  -35.8315   37.0351 P   0  0  1  0  0  5  0  0  0  0  0  0
   29.3790  -35.9699   38.4867 O   0  0  0  0  0  0  0  0  0  0  0  0
   30.5132  -37.1698   36.4329 O   0  0  0  0  0  0  0  0  0  0  0  0
   31.6484  -34.9652   37.3418 O   0  0  0  0  0  0  0  0  0  0  0  0
   31.4087  -33.6657   37.7231 C   0  0  1  0  0  0  0  0  0  0  0  0
   31.8259  -33.3867   39.1636 C   0  0  1  0  0  0  0  0  0  0  0  0
   32.4722  -34.5390   39.6077 O   0  0  0  0  0  0  0  0  0  0  0  0
   32.8484  -32.3134   38.9829 C   0  0  2  0  0  0  0  0  0  0  0  0
   32.8423  -31.3357   40.0351 N   0  0  0  0  0  0  0  0  0  0  0  0
   31.8572  -30.4434   40.2163 C   0  0  0  0  0  0  0  0  0  0  0  0
   30.7051  -30.1995   39.5679 N   0  0  0  0  0  0  0  0  0  0  0  0
   29.8590  -29.2282   39.9461 C   0  0  0  0  0  0  0  0  0  0  0  0
   30.1597  -28.4598   41.0123 N   0  0  0  0  0  0  0  0  0  0  0  0
   31.2896  -28.6346   41.7179 C   0  0  0  0  0  0  0  0  0  0  0  0
   31.5964  -27.8200   42.8403 N   0  0  0  0  0  0  0  0  0  0  0  0
   32.1448  -29.6384   41.3117 C   0  0  0  0  0  0  0  0  0  0  0  0
   33.3364  -30.0937   41.7658 N   0  0  0  0  0  0  0  0  0  0  0  0
   33.7574  -31.1144   40.9995 C   0  0  0  0  0  0  0  0  0  0  0  0
   32.4543  -31.6709   37.7911 O   0  0  0  0  0  0  0  0  0  0  0  0
   32.3760  -32.7711   36.9406 C   0  0  2  0  0  0  0  0  0  0  0  0
   31.7514  -32.3377   35.6551 C   0  0  0  0  0  0  0  0  0  0  0  0
   30.6004  -31.6087   35.9462 O   0  0  0  0  0  0  0  0  0  0  0  0
   29.9226  -31.0260   34.5113 P   0  0  2  0  0  5  0  0  0  0  0  0
   29.2346  -29.7122   34.8851 O   0  0  0  0  0  0  0  0  0  0  0  0
   28.7452  -32.0973   34.0044 O   0  0  0  0  0  0  0  0  0  0  0  0
   31.0574  -30.6851   33.3283 O   0  0  0  0  0  0  0  0  0  0  0  0
   30.3922  -30.5923   31.7743 P   0  0  1  0  0  5  0  0  0  0  0  0
   28.8600  -31.3496   31.7513 O   0  0  0  0  0  0  0  0  0  0  0  0
   30.2058  -29.1768   31.3245 O   0  0  0  0  0  0  0  0  0  0  0  0
   31.3828  -31.4891   30.7472 O   0  0  0  0  0  0  0  0  0  0  0  0
   32.1823  -30.7128   29.9250 C   0  0  0  0  0  0  0  0  0  0  0  0
   33.6066  -31.1989   30.1334 C   0  0  1  0  0  0  0  0  0  0  0  0
   33.7644  -31.4102   31.6342 C   0  0  0  0  0  0  0  0  0  0  0  0
   33.7684  -32.4551   29.3399 C   0  0  0  0  0  0  0  0  0  0  0  0
   34.5295  -30.0873   29.6650 C   0  0  1  0  0  0  0  0  0  0  0  0
   34.0591  -29.7365   28.3751 O   0  0  0  0  0  0  0  0  0  0  0  0
   34.4653  -28.9163   30.5626 C   0  0  0  0  0  0  0  0  0  0  0  0
   34.7950  -29.0391   31.7875 O   0  0  0  0  0  0  0  0  0  0  0  0
   34.0463  -27.6334   30.1280 N   0  0  0  0  0  0  0  0  0  0  0  0
   34.8698  -26.9376   29.1319 C   0  0  0  0  0  0  0  0  0  0  0  0
   35.6193  -25.8741   29.8825 C   0  0  0  0  0  0  0  0  0  0  0  0
   36.4573  -25.0995   28.9003 C   0  0  0  0  0  0  0  0  0  0  0  0
   36.3196  -25.3664   27.7127 O   0  0  0  0  0  0  0  0  0  0  0  0
   37.3439  -24.1241   29.3292 N   0  0  0  0  0  0  0  0  0  0  0  0
   38.2148  -23.2838   28.6339 C   0  0  0  0  0  0  0  0  0  0  0  0
   39.6471  -23.1787   28.8967 C   0  0  0  0  0  0  0  0  0  0  0  0
   40.5376  -23.0552   27.7886 N   0  0  0  0  0  0  0  0  0  0  0  0
   41.6119  -22.0749   27.9579 C   0  0  0  0  0  0  0  0  0  0  0  0
   41.7622  -21.4826   29.0532 O   0  0  0  0  0  0  0  0  0  0  0  0
   42.4948  -21.7957   26.8240 C   0  0  1  0  0  0  0  0  0  0  0  0
   43.0287  -20.3773   26.9241 C   0  0  0  0  0  0  0  0  0  0  0  0
   43.8372  -22.9217   26.7382 S   0  0  1  0  0  6  0  0  0  0  0  0
   44.7226  -22.8134   27.9613 O   0  0  0  0  0  0  0  0  0  0  0  0
   43.2070  -24.4792   26.7423 O   0  0  0  0  0  0  0  0  0  0  0  0
   44.6631  -22.6546   25.5359 O   0  0  0  0  0  0  0  0  0  0  0  0
  2  1  1  6
  2  3  1  0
  2  4  2  0
  2  5  1  0
  6  5  1  6
  6  7  1  0
  6 21  1  0
  7  8  1  6
  7  9  1  0
  9 10  1  1
  9 20  1  0
 10 11  1  0
 10 19  1  0
 11 12  2  0
 11 17  1  0
 12 13  1  0
 13 14  2  0
 14 15  1  0
 15 16  1  0
 15 17  2  0
 17 18  1  0
 18 19  2  0
 20 21  1  0
 21 22  1  6
 22 23  1  0
 23 24  1  0
 24 25  2  0
 24 26  1  6
 24 27  1  0
 27 28  1  0
 28 29  1  1
 28 30  2  0
 28 31  1  0
 31 32  1  0
 32 33  1  0
 33 34  1  1
 33 35  1  0
 33 36  1  0
 36 37  1  6
 36 38  1  0
 38 39  2  0
 38 40  1  0
 40 41  1  0
 41 42  1  0
 42 43  1  0
 43 44  2  0
 43 45  1  0
 45 46  1  0
 46 47  1  0
 47 48  1  0
 48 49  1  0
 49 50  2  0
 49 51  1  0
 51 52  1  1
 51 53  1  0
 53 54  2  0
 53 55  1  6
 53 56  2  0
M  END
$$$$
