
     RDKit          3D

 56 58  0  0  0  0  0  0  0  0999 V2000
   31.4922  -38.7452   27.7342 O   0  0  0  0  0  0  0  0  0  0  0  0
   32.4722  -37.3655   27.4871 P   0  0  1  0  0  5  0  0  0  0  0  0
   33.9680  -37.9023   26.9229 O   0  0  0  0  0  0  0  0  0  0  0  0
   31.8317  -36.4097   26.5318 O   0  0  0  0  0  0  0  0  0  0  0  0
   32.7103  -36.6634   29.0095 O   0  0  0  0  0  0  0  0  0  0  0  0
   33.9799  -36.1598   29.1710 C   0  0  1  0  0  0  0  0  0  0  0  0
   34.9513  -36.6545   28.1041 C   0  0  1  0  0  0  0  0  0  0  0  0
   34.1845  -37.3725   27.1879 O   0  0  0  0  0  0  0  0  0  0  0  0
   35.3767  -35.3753   27.4617 C   0  0  2  0  0  0  0  0  0  0  0  0
   36.7494  -35.3775   27.0386 N   0  0  0  0  0  0  0  0  0  0  0  0
   37.4205  -36.4868   26.6942 C   0  0  0  0  0  0  0  0  0  0  0  0
   37.0819  -37.7864   26.6345 N   0  0  0  0  0  0  0  0  0  0  0  0
   37.9472  -38.7377   26.2493 C   0  0  0  0  0  0  0  0  0  0  0  0
   39.2054  -38.3955   25.9065 N   0  0  0  0  0  0  0  0  0  0  0  0
   39.6280  -37.1205   25.9371 C   0  0  0  0  0  0  0  0  0  0  0  0
   40.9557  -36.7705   25.5731 N   0  0  0  0  0  0  0  0  0  0  0  0
   38.7223  -36.1591   26.3362 C   0  0  0  0  0  0  0  0  0  0  0  0
   38.7883  -34.8147   26.4836 N   0  0  0  0  0  0  0  0  0  0  0  0
   37.6029  -34.3428   26.9059 C   0  0  0  0  0  0  0  0  0  0  0  0
   35.2413  -34.4210   28.4910 O   0  0  0  0  0  0  0  0  0  0  0  0
   33.9213  -34.6590   28.8661 C   0  0  2  0  0  0  0  0  0  0  0  0
   33.6332  -33.8908   30.1140 C   0  0  0  0  0  0  0  0  0  0  0  0
   34.2273  -32.6351   30.0076 O   0  0  0  0  0  0  0  0  0  0  0  0
   33.1269  -31.4465   30.4915 P   0  0  2  0  0  5  0  0  0  0  0  0
   33.5754  -30.1619   29.7932 O   0  0  0  0  0  0  0  0  0  0  0  0
   33.2804  -31.2170   32.1392 O   0  0  0  0  0  0  0  0  0  0  0  0
   31.5534  -31.7605   30.0132 O   0  0  0  0  0  0  0  0  0  0  0  0
   30.4558  -31.7744   31.3021 P   0  0  1  0  0  5  0  0  0  0  0  0
   28.8568  -31.8552   30.7035 O   0  0  0  0  0  0  0  0  0  0  0  0
   30.6622  -32.9498   32.2057 O   0  0  0  0  0  0  0  0  0  0  0  0
   30.5930  -30.2948   32.0975 O   0  0  0  0  0  0  0  0  0  0  0  0
   29.6624  -30.1158   33.1071 C   0  0  0  0  0  0  0  0  0  0  0  0
   30.1285  -28.9114   33.9076 C   0  0  1  0  0  0  0  0  0  0  0  0
   29.5586  -27.6885   33.1994 C   0  0  0  0  0  0  0  0  0  0  0  0
   29.6160  -29.0788   35.3016 C   0  0  0  0  0  0  0  0  0  0  0  0
   31.6456  -28.8917   33.8398 C   0  0  1  0  0  0  0  0  0  0  0  0
   31.9506  -28.3916   32.5494 O   0  0  0  0  0  0  0  0  0  0  0  0
   32.2221  -28.0086   34.8738 C   0  0  0  0  0  0  0  0  0  0  0  0
   32.8425  -28.5157   35.8648 O   0  0  0  0  0  0  0  0  0  0  0  0
   32.1203  -26.5953   34.8251 N   0  0  0  0  0  0  0  0  0  0  0  0
   32.7153  -25.8208   35.9208 C   0  0  0  0  0  0  0  0  0  0  0  0
   31.9997  -24.5001   35.9322 C   0  0  0  0  0  0  0  0  0  0  0  0
   32.1495  -23.8897   37.3003 C   0  0  0  0  0  0  0  0  0  0  0  0
   32.9587  -24.4078   38.0601 O   0  0  0  0  0  0  0  0  0  0  0  0
   31.4012  -22.7852   37.6768 N   0  0  0  0  0  0  0  0  0  0  0  0
   31.4307  -21.9832   38.8187 C   0  0  0  0  0  0  0  0  0  0  0  0
   30.6042  -20.7960   39.0160 C   0  0  0  0  0  0  0  0  0  0  0  0
   30.8258  -19.9943   40.1753 N   0  0  0  0  0  0  0  0  0  0  0  0
   29.6927  -19.9054   41.0982 C   0  0  0  0  0  0  0  0  0  0  0  0
   28.6204  -20.5044   40.8444 O   0  0  0  0  0  0  0  0  0  0  0  0
   29.8349  -19.0983   42.3114 C   0  0  1  0  0  0  0  0  0  0  0  0
   29.7737  -17.6224   41.9581 C   0  0  0  0  0  0  0  0  0  0  0  0
   28.5984  -19.4674   43.4998 S   0  0  1  0  0  6  0  0  0  0  0  0
   28.7977  -18.6625   44.7663 O   0  0  0  0  0  0  0  0  0  0  0  0
   27.1149  -18.9986   42.8654 O   0  0  0  0  0  0  0  0  0  0  0  0
   28.6281  -20.9081   43.8498 O   0  0  0  0  0  0  0  0  0  0  0  0
  2  1  1  1
  2  3  1  0
  2  4  2  0
  2  5  1  0
  6  5  1  6
  6  7  1  0
  6 21  1  0
  7  8  1  6
  7  9  1  0
  9 10  1  1
  9 20  1  0
 10 11  1  0
 10 19  1  0
 11 12  2  0
 11 17  1  0
 12 13  1  0
 13 14  2  0
 14 15  1  0
 15 16  1  0
 15 17  2  0
 17 18  1  0
 18 19  2  0
 20 21  1  0
 21 22  1  1
 22 23  1  0
 23 24  1  0
 24 25  2  0
 24 26  1  1
 24 27  1  0
 27 28  1  0
 28 29  1  6
 28 30  2  0
 28 31  1  0
 31 32  1  0
 32 33  1  0
 33 34  1  6
 33 35  1  0
 33 36  1  0
 36 37  1  6
 36 38  1  0
 38 39  2  0
 38 40  1  0
 40 41  1  0
 41 42  1  0
 42 43  1  0
 43 44  2  0
 43 45  1  0
 45 46  1  0
 46 47  1  0
 47 48  1  0
 48 49  1  0
 49 50  2  0
 49 51  1  0
 51 52  1  6
 51 53  1  0
 53 54  2  0
 53 55  1  6
 53 56  2  0
M  END
$$$$
