
     RDKit          3D

 56 58  0  0  0  0  0  0  0  0999 V2000
   17.3824   28.3015   14.1439 O   0  0  0  0  0  0  0  0  0  0  0  0
   17.3112   27.7353   15.7562 P   0  0  1  0  0  5  0  0  0  0  0  0
   16.9665   29.0593   16.7423 O   0  0  0  0  0  0  0  0  0  0  0  0
   16.2896   26.6536   15.9061 O   0  0  0  0  0  0  0  0  0  0  0  0
   18.8654   27.1864   16.1443 O   0  0  0  0  0  0  0  0  0  0  0  0
   19.7061   27.1550   15.0563 C   0  0  1  0  0  0  0  0  0  0  0  0
   20.8837   28.1149   15.1923 C   0  0  1  0  0  0  0  0  0  0  0  0
   20.8104   28.6342   16.4838 O   0  0  0  0  0  0  0  0  0  0  0  0
   22.0477   27.1819   15.1255 C   0  0  2  0  0  0  0  0  0  0  0  0
   23.1882   27.7385   14.4528 N   0  0  0  0  0  0  0  0  0  0  0  0
   23.8440   28.8289   14.8775 C   0  0  0  0  0  0  0  0  0  0  0  0
   23.6801   29.6506   15.9288 N   0  0  0  0  0  0  0  0  0  0  0  0
   24.4838   30.7027   16.1510 C   0  0  0  0  0  0  0  0  0  0  0  0
   25.4968   30.9597   15.2993 N   0  0  0  0  0  0  0  0  0  0  0  0
   25.7328   30.1901   14.2235 C   0  0  0  0  0  0  0  0  0  0  0  0
   26.8035   30.4692   13.3328 N   0  0  0  0  0  0  0  0  0  0  0  0
   24.8946   29.1143   14.0142 C   0  0  0  0  0  0  0  0  0  0  0  0
   24.8296   28.1486   13.0673 N   0  0  0  0  0  0  0  0  0  0  0  0
   23.8041   27.3204   13.3293 C   0  0  0  0  0  0  0  0  0  0  0  0
   21.5705   26.1041   14.3514 O   0  0  0  0  0  0  0  0  0  0  0  0
   20.4120   25.7947   15.0600 C   0  0  2  0  0  0  0  0  0  0  0  0
   19.6213   24.8019   14.2729 C   0  0  0  0  0  0  0  0  0  0  0  0
   19.5910   23.6011   14.9786 O   0  0  0  0  0  0  0  0  0  0  0  0
   21.0194   23.4312   15.8667 P   0  0  2  0  0  5  0  0  0  0  0  0
   21.1818   21.9288   16.1014 O   0  0  0  0  0  0  0  0  0  0  0  0
   20.8132   24.1650   17.3534 O   0  0  0  0  0  0  0  0  0  0  0  0
   22.3796   23.9665   15.0501 O   0  0  0  0  0  0  0  0  0  0  0  0
   23.7358   24.1291   16.0503 P   0  0  1  0  0  5  0  0  0  0  0  0
   25.1638   23.9798   15.1228 O   0  0  0  0  0  0  0  0  0  0  0  0
   23.7757   25.4600   16.7343 O   0  0  0  0  0  0  0  0  0  0  0  0
   23.7279   22.8313   17.1257 O   0  0  0  0  0  0  0  0  0  0  0  0
   24.7170   22.9017   18.0923 C   0  0  0  0  0  0  0  0  0  0  0  0
   24.5584   21.6614   18.9554 C   0  0  1  0  0  0  0  0  0  0  0  0
   25.2150   21.9904   20.2906 C   0  0  0  0  0  0  0  0  0  0  0  0
   23.0943   21.3835   19.0697 C   0  0  0  0  0  0  0  0  0  0  0  0
   25.3154   20.5395   18.2662 C   0  0  1  0  0  0  0  0  0  0  0  0
   25.2978   19.4626   19.1872 O   0  0  0  0  0  0  0  0  0  0  0  0
   24.6584   20.1379   17.0059 C   0  0  0  0  0  0  0  0  0  0  0  0
   24.9290   20.7579   15.9258 O   0  0  0  0  0  0  0  0  0  0  0  0
   23.7207   19.0773   16.9288 N   0  0  0  0  0  0  0  0  0  0  0  0
   24.1902   17.7726   16.4472 C   0  0  0  0  0  0  0  0  0  0  0  0
   23.9016   16.7945   17.5501 C   0  0  0  0  0  0  0  0  0  0  0  0
   22.5509   16.1786   17.2983 C   0  0  0  0  0  0  0  0  0  0  0  0
   22.0577   16.3429   16.1891 O   0  0  0  0  0  0  0  0  0  0  0  0
   21.8997   15.4544   18.2847 N   0  0  0  0  0  0  0  0  0  0  0  0
   20.6464   14.8411   18.3183 C   0  0  0  0  0  0  0  0  0  0  0  0
   20.4299   13.4167   18.5545 C   0  0  0  0  0  0  0  0  0  0  0  0
   19.4964   12.7216   17.7290 N   0  0  0  0  0  0  0  0  0  0  0  0
   20.0034   11.4956   17.1097 C   0  0  0  0  0  0  0  0  0  0  0  0
   21.1704   11.1019   17.3467 O   0  0  0  0  0  0  0  0  0  0  0  0
   19.1266   10.7496   16.2051 C   0  0  1  0  0  0  0  0  0  0  0  0
   19.8691   10.4237   14.9209 C   0  0  0  0  0  0  0  0  0  0  0  0
   18.5348    9.2665   16.9316 S   0  0  1  0  0  6  0  0  0  0  0  0
   17.3758    8.6945   16.1434 O   0  0  0  0  0  0  0  0  0  0  0  0
   19.7681    8.1277   16.8604 O   0  0  0  0  0  0  0  0  0  0  0  0
   18.0805    9.5143   18.3213 O   0  0  0  0  0  0  0  0  0  0  0  0
  2  1  1  6
  2  3  1  0
  2  4  2  0
  2  5  1  0
  6  5  1  1
  6  7  1  0
  6 21  1  0
  7  8  1  1
  7  9  1  0
  9 10  1  6
  9 20  1  0
 10 11  1  0
 10 19  1  0
 11 12  2  0
 11 17  1  0
 12 13  1  0
 13 14  2  0
 14 15  1  0
 15 16  1  0
 15 17  2  0
 17 18  1  0
 18 19  2  0
 20 21  1  0
 21 22  1  6
 22 23  1  0
 23 24  1  0
 24 25  2  0
 24 26  1  1
 24 27  1  0
 27 28  1  0
 28 29  1  6
 28 30  2  0
 28 31  1  0
 31 32  1  0
 32 33  1  0
 33 34  1  1
 33 35  1  0
 33 36  1  0
 36 37  1  1
 36 38  1  0
 38 39  2  0
 38 40  1  0
 40 41  1  0
 41 42  1  0
 42 43  1  0
 43 44  2  0
 43 45  1  0
 45 46  1  0
 46 47  1  0
 47 48  1  0
 48 49  1  0
 49 50  2  0
 49 51  1  0
 51 52  1  6
 51 53  1  0
 53 54  2  0
 53 55  1  1
 53 56  2  0
M  END
$$$$
