
     RDKit          3D

 56 58  0  0  0  0  0  0  0  0999 V2000
   26.1042  -36.0190   30.9479 O   0  0  0  0  0  0  0  0  0  0  0  0
   27.7398  -36.4557   30.7054 P   0  0  1  0  0  5  0  0  0  0  0  0
   27.8607  -38.1198   30.9509 O   0  0  0  0  0  0  0  0  0  0  0  0
   28.2092  -36.0628   29.3411 O   0  0  0  0  0  0  0  0  0  0  0  0
   28.6310  -35.6831   31.9204 O   0  0  0  0  0  0  0  0  0  0  0  0
   29.6469  -34.9022   31.4208 C   0  0  1  0  0  0  0  0  0  0  0  0
   29.1702  -33.9295   30.3469 C   0  0  1  0  0  0  0  0  0  0  0  0
   27.7815  -34.0446   30.3117 O   0  0  0  0  0  0  0  0  0  0  0  0
   29.5180  -32.6101   30.9536 C   0  0  2  0  0  0  0  0  0  0  0  0
   29.9390  -31.6315   29.9901 N   0  0  0  0  0  0  0  0  0  0  0  0
   29.1432  -30.6592   29.5203 C   0  0  0  0  0  0  0  0  0  0  0  0
   27.8651  -30.3189   29.7607 N   0  0  0  0  0  0  0  0  0  0  0  0
   27.2721  -29.2781   29.1546 C   0  0  0  0  0  0  0  0  0  0  0  0
   27.9684  -28.5364   28.2700 N   0  0  0  0  0  0  0  0  0  0  0  0
   29.2502  -28.8057   27.9707 C   0  0  0  0  0  0  0  0  0  0  0  0
   29.9752  -28.0172   27.0377 N   0  0  0  0  0  0  0  0  0  0  0  0
   29.8399  -29.8798   28.6050 C   0  0  0  0  0  0  0  0  0  0  0  0
   31.0750  -30.4326   28.5569 N   0  0  0  0  0  0  0  0  0  0  0  0
   31.1366  -31.4861   29.3892 C   0  0  0  0  0  0  0  0  0  0  0  0
   30.6189  -32.9022   31.7849 O   0  0  0  0  0  0  0  0  0  0  0  0
   30.0819  -33.9451   32.5359 C   0  0  2  0  0  0  0  0  0  0  0  0
   31.1739  -34.5616   33.3470 C   0  0  0  0  0  0  0  0  0  0  0  0
   31.1932  -33.9516   34.5993 O   0  0  0  0  0  0  0  0  0  0  0  0
   32.5059  -34.5338   35.4914 P   0  0  2  0  0  5  0  0  0  0  0  0
   32.1123  -35.9453   35.9292 O   0  0  0  0  0  0  0  0  0  0  0  0
   32.6746  -33.5974   36.8646 O   0  0  0  0  0  0  0  0  0  0  0  0
   33.9172  -34.6551   34.5986 O   0  0  0  0  0  0  0  0  0  0  0  0
   33.6873  -34.3640   32.9468 P   0  0  1  0  0  5  0  0  0  0  0  0
   35.0016  -34.9973   32.0562 O   0  0  0  0  0  0  0  0  0  0  0  0
   32.4375  -35.0052   32.4298 O   0  0  0  0  0  0  0  0  0  0  0  0
   33.7182  -32.6941   32.7198 O   0  0  0  0  0  0  0  0  0  0  0  0
   34.8756  -32.2347   32.1142 C   0  0  0  0  0  0  0  0  0  0  0  0
   34.9585  -30.7498   32.4248 C   0  0  1  0  0  0  0  0  0  0  0  0
   34.8395  -30.6287   33.9391 C   0  0  0  0  0  0  0  0  0  0  0  0
   36.2657  -30.2568   31.8938 C   0  0  0  0  0  0  0  0  0  0  0  0
   33.7671  -30.0874   31.7550 C   0  0  1  0  0  0  0  0  0  0  0  0
   32.6814  -30.9709   31.9764 O   0  0  0  0  0  0  0  0  0  0  0  0
   33.4754  -28.7681   32.3513 C   0  0  0  0  0  0  0  0  0  0  0  0
   34.4172  -28.0893   32.8772 O   0  0  0  0  0  0  0  0  0  0  0  0
   32.1758  -28.2019   32.3731 N   0  0  0  0  0  0  0  0  0  0  0  0
   31.9766  -26.9561   33.1232 C   0  0  0  0  0  0  0  0  0  0  0  0
   32.6025  -27.1780   34.4706 C   0  0  0  0  0  0  0  0  0  0  0  0
   33.7830  -26.2532   34.6048 C   0  0  0  0  0  0  0  0  0  0  0  0
   33.9890  -25.4698   33.6859 O   0  0  0  0  0  0  0  0  0  0  0  0
   34.5972  -26.2904   35.7261 N   0  0  0  0  0  0  0  0  0  0  0  0
   35.7355  -25.5633   36.0773 C   0  0  0  0  0  0  0  0  0  0  0  0
   36.4156  -25.6644   37.3652 C   0  0  0  0  0  0  0  0  0  0  0  0
   36.3966  -26.9153   38.0514 N   0  0  0  0  0  0  0  0  0  0  0  0
   35.9488  -26.8561   39.4441 C   0  0  0  0  0  0  0  0  0  0  0  0
   35.6987  -25.7514   39.9828 O   0  0  0  0  0  0  0  0  0  0  0  0
   35.8102  -28.1067   40.1925 C   0  0  1  0  0  0  0  0  0  0  0  0
   36.5027  -27.9809   41.5384 C   0  0  0  0  0  0  0  0  0  0  0  0
   34.1301  -28.5479   40.4377 S   0  0  1  0  0  6  0  0  0  0  0  0
   34.0019  -29.6954   41.4166 O   0  0  0  0  0  0  0  0  0  0  0  0
   33.3474  -27.2355   41.1362 O   0  0  0  0  0  0  0  0  0  0  0  0
   33.5072  -28.9537   39.1546 O   0  0  0  0  0  0  0  0  0  0  0  0
  2  1  1  6
  2  3  1  0
  2  4  2  0
  2  5  1  0
  6  5  1  1
  6  7  1  0
  6 21  1  0
  7  8  1  1
  7  9  1  0
  9 10  1  6
  9 20  1  0
 10 11  1  0
 10 19  1  0
 11 12  2  0
 11 17  1  0
 12 13  1  0
 13 14  2  0
 14 15  1  0
 15 16  1  0
 15 17  2  0
 17 18  1  0
 18 19  2  0
 20 21  1  0
 21 22  1  1
 22 23  1  0
 23 24  1  0
 24 25  2  0
 24 26  1  1
 24 27  1  0
 27 28  1  0
 28 29  1  6
 28 30  2  0
 28 31  1  0
 31 32  1  0
 32 33  1  0
 33 34  1  1
 33 35  1  0
 33 36  1  0
 36 37  1  1
 36 38  1  0
 38 39  2  0
 38 40  1  0
 40 41  1  0
 41 42  1  0
 42 43  1  0
 43 44  2  0
 43 45  1  0
 45 46  1  0
 46 47  1  0
 47 48  1  0
 48 49  1  0
 49 50  2  0
 49 51  1  0
 51 52  1  1
 51 53  1  0
 53 54  2  0
 53 55  1  1
 53 56  2  0
M  END
$$$$
