
     RDKit          3D

 56 58  0  0  0  0  0  0  0  0999 V2000
   15.7429   19.1484   20.3912 O   0  0  0  0  0  0  0  0  0  0  0  0
   16.5138   17.8333   21.1667 P   0  0  1  0  0  5  0  0  0  0  0  0
   15.8224   17.6725   22.6965 O   0  0  0  0  0  0  0  0  0  0  0  0
   16.3808   16.5779   20.3653 O   0  0  0  0  0  0  0  0  0  0  0  0
   18.1353   18.2764   21.3711 O   0  0  0  0  0  0  0  0  0  0  0  0
   18.4403   19.4739   20.7673 C   0  0  1  0  0  0  0  0  0  0  0  0
   18.4862   20.6372   21.7529 C   0  0  1  0  0  0  0  0  0  0  0  0
   18.3400   20.0748   23.0198 O   0  0  0  0  0  0  0  0  0  0  0  0
   19.8962   21.1065   21.6060 C   0  0  2  0  0  0  0  0  0  0  0  0
   20.0404   22.5301   21.7310 N   0  0  0  0  0  0  0  0  0  0  0  0
   20.4405   23.1419   22.8557 C   0  0  0  0  0  0  0  0  0  0  0  0
   20.7942   22.6925   24.0723 N   0  0  0  0  0  0  0  0  0  0  0  0
   21.1683   23.5179   25.0628 C   0  0  0  0  0  0  0  0  0  0  0  0
   21.1959   24.8485   24.8473 N   0  0  0  0  0  0  0  0  0  0  0  0
   20.8584   25.3832   23.6619 C   0  0  0  0  0  0  0  0  0  0  0  0
   20.8917   26.7867   23.4451 N   0  0  0  0  0  0  0  0  0  0  0  0
   20.4770   24.5167   22.6581 C   0  0  0  0  0  0  0  0  0  0  0  0
   20.0832   24.6871   21.3739 N   0  0  0  0  0  0  0  0  0  0  0  0
   19.8203   23.4936   20.8147 C   0  0  0  0  0  0  0  0  0  0  0  0
   20.2328   20.7506   20.2837 O   0  0  0  0  0  0  0  0  0  0  0  0
   19.9002   19.3983   20.3076 C   0  0  2  0  0  0  0  0  0  0  0  0
   19.9748   18.8632   18.9153 C   0  0  0  0  0  0  0  0  0  0  0  0
   19.5008   19.8384   18.0405 O   0  0  0  0  0  0  0  0  0  0  0  0
   19.4674   19.2189   16.4679 P   0  0  2  0  0  5  0  0  0  0  0  0
   18.4560   20.0786   15.7084 O   0  0  0  0  0  0  0  0  0  0  0  0
   18.8767   17.6571   16.5227 O   0  0  0  0  0  0  0  0  0  0  0  0
   20.9354   19.3411   15.6721 O   0  0  0  0  0  0  0  0  0  0  0  0
   21.2920   20.9183   15.1710 P   0  0  1  0  0  5  0  0  0  0  0  0
   21.8909   20.8987   13.5702 O   0  0  0  0  0  0  0  0  0  0  0  0
   20.0851   21.8035   15.1934 O   0  0  0  0  0  0  0  0  0  0  0  0
   22.5473   21.4847   16.1428 O   0  0  0  0  0  0  0  0  0  0  0  0
   22.7882   20.6988   17.2572 C   0  0  0  0  0  0  0  0  0  0  0  0
   23.9357   21.3579   18.0035 C   0  0  1  0  0  0  0  0  0  0  0  0
   24.8541   21.9394   16.9356 C   0  0  0  0  0  0  0  0  0  0  0  0
   23.3441   22.3953   18.9022 C   0  0  0  0  0  0  0  0  0  0  0  0
   24.6569   20.2622   18.7690 C   0  0  1  0  0  0  0  0  0  0  0  0
   23.9081   19.0850   18.5210 O   0  0  0  0  0  0  0  0  0  0  0  0
   26.0434   20.0901   18.2902 C   0  0  0  0  0  0  0  0  0  0  0  0
   26.9463   20.9107   18.6582 O   0  0  0  0  0  0  0  0  0  0  0  0
   26.4349   19.0392   17.4228 N   0  0  0  0  0  0  0  0  0  0  0  0
   27.4261   19.3350   16.3813 C   0  0  0  0  0  0  0  0  0  0  0  0
   28.6077   18.4538   16.6705 C   0  0  0  0  0  0  0  0  0  0  0  0
   28.3965   17.1328   15.9798 C   0  0  0  0  0  0  0  0  0  0  0  0
   27.2397   16.7652   15.8142 O   0  0  0  0  0  0  0  0  0  0  0  0
   29.4713   16.3706   15.5492 N   0  0  0  0  0  0  0  0  0  0  0  0
   29.5733   15.3552   14.5971 C   0  0  0  0  0  0  0  0  0  0  0  0
   28.9949   14.0229   14.7450 C   0  0  0  0  0  0  0  0  0  0  0  0
   29.8127   12.9775   15.2688 N   0  0  0  0  0  0  0  0  0  0  0  0
   31.0110   12.6708   14.4854 C   0  0  0  0  0  0  0  0  0  0  0  0
   31.2094   13.2362   13.3836 O   0  0  0  0  0  0  0  0  0  0  0  0
   31.9614   11.6879   15.0088 C   0  0  1  0  0  0  0  0  0  0  0  0
   32.1029   10.5360   14.0289 C   0  0  0  0  0  0  0  0  0  0  0  0
   33.5385   12.3917   15.3164 S   0  0  1  0  0  6  0  0  0  0  0  0
   34.5856   11.3192   15.5284 O   0  0  0  0  0  0  0  0  0  0  0  0
   34.0007   13.2448   13.9447 O   0  0  0  0  0  0  0  0  0  0  0  0
   33.4968   13.2520   16.5236 O   0  0  0  0  0  0  0  0  0  0  0  0
  2  1  1  6
  2  3  1  0
  2  4  2  0
  2  5  1  0
  6  5  1  1
  6  7  1  0
  6 21  1  0
  7  8  1  1
  7  9  1  0
  9 10  1  6
  9 20  1  0
 10 11  1  0
 10 19  1  0
 11 12  2  0
 11 17  1  0
 12 13  1  0
 13 14  2  0
 14 15  1  0
 15 16  1  0
 15 17  2  0
 17 18  1  0
 18 19  2  0
 20 21  1  0
 21 22  1  6
 22 23  1  0
 23 24  1  0
 24 25  2  0
 24 26  1  1
 24 27  1  0
 27 28  1  0
 28 29  1  6
 28 30  2  0
 28 31  1  0
 31 32  1  0
 32 33  1  0
 33 34  1  6
 33 35  1  0
 33 36  1  0
 36 37  1  6
 36 38  1  0
 38 39  2  0
 38 40  1  0
 40 41  1  0
 41 42  1  0
 42 43  1  0
 43 44  2  0
 43 45  1  0
 45 46  1  0
 46 47  1  0
 47 48  1  0
 48 49  1  0
 49 50  2  0
 49 51  1  0
 51 52  1  6
 51 53  1  0
 53 54  2  0
 53 55  1  6
 53 56  2  0
M  END
$$$$
