
     RDKit          3D

 56 58  0  0  0  0  0  0  0  0999 V2000
   21.1199   26.8041   14.4550 O   0  0  0  0  0  0  0  0  0  0  0  0
   20.3851   27.5906   15.7840 P   0  0  1  0  0  5  0  0  0  0  0  0
   21.6136   28.3086   16.6891 O   0  0  0  0  0  0  0  0  0  0  0  0
   19.3749   28.5948   15.3287 O   0  0  0  0  0  0  0  0  0  0  0  0
   19.6789   26.3783   16.7322 O   0  0  0  0  0  0  0  0  0  0  0  0
   20.6094   25.5802   17.3557 C   0  0  1  0  0  0  0  0  0  0  0  0
   20.2542   25.2846   18.8094 C   0  0  1  0  0  0  0  0  0  0  0  0
   18.9823   25.8177   19.0115 O   0  0  0  0  0  0  0  0  0  0  0  0
   20.1443   23.7953   18.8002 C   0  0  2  0  0  0  0  0  0  0  0  0
   20.6016   23.1813   20.0155 N   0  0  0  0  0  0  0  0  0  0  0  0
   20.0795   23.4419   21.2234 C   0  0  0  0  0  0  0  0  0  0  0  0
   19.0903   24.2493   21.6441 N   0  0  0  0  0  0  0  0  0  0  0  0
   18.7390   24.3425   22.9364 C   0  0  0  0  0  0  0  0  0  0  0  0
   19.3911   23.6072   23.8594 N   0  0  0  0  0  0  0  0  0  0  0  0
   20.3916   22.7745   23.5267 C   0  0  0  0  0  0  0  0  0  0  0  0
   21.0716   22.0035   24.5070 N   0  0  0  0  0  0  0  0  0  0  0  0
   20.7363   22.6944   22.1931 C   0  0  0  0  0  0  0  0  0  0  0  0
   21.6633   21.9851   21.5068 N   0  0  0  0  0  0  0  0  0  0  0  0
   21.5838   22.2765   20.1972 C   0  0  0  0  0  0  0  0  0  0  0  0
   21.0124   23.4007   17.7613 O   0  0  0  0  0  0  0  0  0  0  0  0
   20.5173   24.1871   16.7238 C   0  0  2  0  0  0  0  0  0  0  0  0
   21.4492   24.0862   15.5612 C   0  0  0  0  0  0  0  0  0  0  0  0
   22.0143   22.8128   15.5563 O   0  0  0  0  0  0  0  0  0  0  0  0
   22.7558   22.5178   17.0466 P   0  0  2  0  0  5  0  0  0  0  0  0
   22.6288   23.8223   17.8347 O   0  0  0  0  0  0  0  0  0  0  0  0
   24.3808   22.2304   16.7859 O   0  0  0  0  0  0  0  0  0  0  0  0
   22.0076   21.3130   17.9365 O   0  0  0  0  0  0  0  0  0  0  0  0
   22.2078   19.7701   17.2691 P   0  0  1  0  0  5  0  0  0  0  0  0
   20.9997   18.7176   17.8643 O   0  0  0  0  0  0  0  0  0  0  0  0
   22.1028   19.7837   15.7760 O   0  0  0  0  0  0  0  0  0  0  0  0
   23.6808   19.1677   17.8244 O   0  0  0  0  0  0  0  0  0  0  0  0
   23.8054   19.1828   19.2034 C   0  0  0  0  0  0  0  0  0  0  0  0
   25.1021   18.4579   19.5220 C   0  0  1  0  0  0  0  0  0  0  0  0
   25.2301   18.4708   21.0404 C   0  0  0  0  0  0  0  0  0  0  0  0
   24.9940   17.0812   18.9502 C   0  0  0  0  0  0  0  0  0  0  0  0
   26.2280   19.2642   18.8984 C   0  0  1  0  0  0  0  0  0  0  0  0
   27.3492   19.0410   19.7358 O   0  0  0  0  0  0  0  0  0  0  0  0
   26.5237   18.8084   17.5250 C   0  0  0  0  0  0  0  0  0  0  0  0
   25.6941   19.0459   16.5872 O   0  0  0  0  0  0  0  0  0  0  0  0
   27.7058   18.1040   17.1840 N   0  0  0  0  0  0  0  0  0  0  0  0
   27.9111   17.7373   15.7776 C   0  0  0  0  0  0  0  0  0  0  0  0
   29.3976   17.6312   15.5888 C   0  0  0  0  0  0  0  0  0  0  0  0
   29.8123   16.2109   15.8677 C   0  0  0  0  0  0  0  0  0  0  0  0
   28.9221   15.4022   16.1006 O   0  0  0  0  0  0  0  0  0  0  0  0
   31.1479   15.8403   15.8570 N   0  0  0  0  0  0  0  0  0  0  0  0
   31.7750   14.6050   16.0267 C   0  0  0  0  0  0  0  0  0  0  0  0
   33.2215   14.4119   16.0696 C   0  0  0  0  0  0  0  0  0  0  0  0
   33.7288   13.1265   16.4253 N   0  0  0  0  0  0  0  0  0  0  0  0
   32.8877   11.9938   16.0339 C   0  0  0  0  0  0  0  0  0  0  0  0
   31.7090   12.1829   15.6493 O   0  0  0  0  0  0  0  0  0  0  0  0
   33.4465   10.6427   16.1108 C   0  0  1  0  0  0  0  0  0  0  0  0
   32.7184    9.7283   15.1410 C   0  0  0  0  0  0  0  0  0  0  0  0
   35.1654   10.6172   15.7610 S   0  0  1  0  0  6  0  0  0  0  0  0
   35.4797    9.6665   14.6257 O   0  0  0  0  0  0  0  0  0  0  0  0
   35.6092   12.1503   15.2360 O   0  0  0  0  0  0  0  0  0  0  0  0
   35.9323   10.1906   16.9564 O   0  0  0  0  0  0  0  0  0  0  0  0
  2  1  1  6
  2  3  1  0
  2  4  2  0
  2  5  1  0
  6  5  1  6
  6  7  1  0
  6 21  1  0
  7  8  1  6
  7  9  1  0
  9 10  1  1
  9 20  1  0
 10 11  1  0
 10 19  1  0
 11 12  2  0
 11 17  1  0
 12 13  1  0
 13 14  2  0
 14 15  1  0
 15 16  1  0
 15 17  2  0
 17 18  1  0
 18 19  2  0
 20 21  1  0
 21 22  1  6
 22 23  1  0
 23 24  1  0
 24 25  2  0
 24 26  1  6
 24 27  1  0
 27 28  1  0
 28 29  1  1
 28 30  2  0
 28 31  1  0
 31 32  1  0
 32 33  1  0
 33 34  1  1
 33 35  1  0
 33 36  1  0
 36 37  1  1
 36 38  1  0
 38 39  2  0
 38 40  1  0
 40 41  1  0
 41 42  1  0
 42 43  1  0
 43 44  2  0
 43 45  1  0
 45 46  1  0
 46 47  1  0
 47 48  1  0
 48 49  1  0
 49 50  2  0
 49 51  1  0
 51 52  1  6
 51 53  1  0
 53 54  2  0
 53 55  1  6
 53 56  2  0
M  END
$$$$
