
     RDKit          3D

 56 58  0  0  0  0  0  0  0  0999 V2000
   18.3469   18.7880   19.8862 O   0  0  0  0  0  0  0  0  0  0  0  0
   19.7318   18.4627   20.8355 P   0  0  1  0  0  5  0  0  0  0  0  0
   19.2419   17.5018   22.1319 O   0  0  0  0  0  0  0  0  0  0  0  0
   20.7992   17.7973   20.0267 O   0  0  0  0  0  0  0  0  0  0  0  0
   20.2522   19.9499   21.4558 O   0  0  0  0  0  0  0  0  0  0  0  0
   20.5231   20.8718   20.4718 C   0  0  1  0  0  0  0  0  0  0  0  0
   20.0870   22.2838   20.8496 C   0  0  1  0  0  0  0  0  0  0  0  0
   19.6670   22.2152   22.1770 O   0  0  0  0  0  0  0  0  0  0  0  0
   21.3819   23.0261   20.8033 C   0  0  2  0  0  0  0  0  0  0  0  0
   21.2498   24.3763   20.3316 N   0  0  0  0  0  0  0  0  0  0  0  0
   21.0307   25.4276   21.1354 C   0  0  0  0  0  0  0  0  0  0  0  0
   20.8844   25.5547   22.4657 N   0  0  0  0  0  0  0  0  0  0  0  0
   20.6693   26.7415   23.0552 C   0  0  0  0  0  0  0  0  0  0  0  0
   20.5941   27.8567   22.3012 N   0  0  0  0  0  0  0  0  0  0  0  0
   20.7290   27.8210   20.9649 C   0  0  0  0  0  0  0  0  0  0  0  0
   20.6490   29.0021   20.1798 N   0  0  0  0  0  0  0  0  0  0  0  0
   20.9493   26.5909   20.3800 C   0  0  0  0  0  0  0  0  0  0  0  0
   21.1297   26.1808   19.1022 N   0  0  0  0  0  0  0  0  0  0  0  0
   21.3106   24.8494   19.0710 C   0  0  0  0  0  0  0  0  0  0  0  0
   22.1465   22.3095   19.8597 O   0  0  0  0  0  0  0  0  0  0  0  0
   22.0457   21.0272   20.3940 C   0  0  2  0  0  0  0  0  0  0  0  0
   22.6132   20.0548   19.4128 C   0  0  0  0  0  0  0  0  0  0  0  0
   22.0705   20.3244   18.1583 O   0  0  0  0  0  0  0  0  0  0  0  0
   23.3110   20.4148   17.0134 P   0  0  2  0  0  5  0  0  0  0  0  0
   23.5885   21.9068   16.8243 O   0  0  0  0  0  0  0  0  0  0  0  0
   22.7435   19.8092   15.5635 O   0  0  0  0  0  0  0  0  0  0  0  0
   24.7361   19.6940   17.5164 O   0  0  0  0  0  0  0  0  0  0  0  0
   24.8200   18.0467   17.1349 P   0  0  1  0  0  5  0  0  0  0  0  0
   25.8872   17.2545   18.2097 O   0  0  0  0  0  0  0  0  0  0  0  0
   23.4867   17.3747   17.2413 O   0  0  0  0  0  0  0  0  0  0  0  0
   25.5062   17.9186   15.6008 O   0  0  0  0  0  0  0  0  0  0  0  0
   26.1624   16.7191   15.3816 C   0  0  0  0  0  0  0  0  0  0  0  0
   26.5399   16.7026   13.9100 C   0  0  1  0  0  0  0  0  0  0  0  0
   26.3838   15.2579   13.4511 C   0  0  0  0  0  0  0  0  0  0  0  0
   25.6224   17.6486   13.2050 C   0  0  0  0  0  0  0  0  0  0  0  0
   27.9966   17.1226   13.8192 C   0  0  1  0  0  0  0  0  0  0  0  0
   28.1901   18.0189   14.8996 O   0  0  0  0  0  0  0  0  0  0  0  0
   28.9032   15.9644   13.9542 C   0  0  0  0  0  0  0  0  0  0  0  0
   29.5152   15.5172   12.9297 O   0  0  0  0  0  0  0  0  0  0  0  0
   29.1350   15.3062   15.1883 N   0  0  0  0  0  0  0  0  0  0  0  0
   30.0397   14.1504   15.1965 C   0  0  0  0  0  0  0  0  0  0  0  0
   31.1280   14.4819   16.1774 C   0  0  0  0  0  0  0  0  0  0  0  0
   31.6004   13.2019   16.8143 C   0  0  0  0  0  0  0  0  0  0  0  0
   30.9401   12.1924   16.6011 O   0  0  0  0  0  0  0  0  0  0  0  0
   32.7382   13.1740   17.6056 N   0  0  0  0  0  0  0  0  0  0  0  0
   34.0922   13.3159   17.2985 C   0  0  0  0  0  0  0  0  0  0  0  0
   34.6046   14.0352   16.1359 C   0  0  0  0  0  0  0  0  0  0  0  0
   35.7456   13.5120   15.4572 N   0  0  0  0  0  0  0  0  0  0  0  0
   36.6749   12.7512   16.2945 C   0  0  0  0  0  0  0  0  0  0  0  0
   36.8065   11.5144   16.1326 O   0  0  0  0  0  0  0  0  0  0  0  0
   37.4348   13.4602   17.3256 C   0  0  1  0  0  0  0  0  0  0  0  0
   36.9705   14.9041   17.4061 C   0  0  0  0  0  0  0  0  0  0  0  0
   37.2752   12.7054   18.9012 S   0  0  1  0  0  6  0  0  0  0  0  0
   35.9193   12.9906   19.5109 O   0  0  0  0  0  0  0  0  0  0  0  0
   37.3618   11.0410   18.6884 O   0  0  0  0  0  0  0  0  0  0  0  0
   38.3204   13.2072   19.8257 O   0  0  0  0  0  0  0  0  0  0  0  0
  2  1  1  6
  2  3  1  0
  2  4  2  0
  2  5  1  0
  6  5  1  1
  6  7  1  0
  6 21  1  0
  7  8  1  1
  7  9  1  0
  9 10  1  6
  9 20  1  0
 10 11  1  0
 10 19  1  0
 11 12  2  0
 11 17  1  0
 12 13  1  0
 13 14  2  0
 14 15  1  0
 15 16  1  0
 15 17  2  0
 17 18  1  0
 18 19  2  0
 20 21  1  0
 21 22  1  6
 22 23  1  0
 23 24  1  0
 24 25  2  0
 24 26  1  6
 24 27  1  0
 27 28  1  0
 28 29  1  1
 28 30  2  0
 28 31  1  0
 31 32  1  0
 32 33  1  0
 33 34  1  6
 33 35  1  0
 33 36  1  0
 36 37  1  1
 36 38  1  0
 38 39  2  0
 38 40  1  0
 40 41  1  0
 41 42  1  0
 42 43  1  0
 43 44  2  0
 43 45  1  0
 45 46  1  0
 46 47  1  0
 47 48  1  0
 48 49  1  0
 49 50  2  0
 49 51  1  0
 51 52  1  1
 51 53  1  0
 53 54  2  0
 53 55  1  6
 53 56  2  0
M  END
$$$$
