
     RDKit          3D

 56 58  0  0  0  0  0  0  0  0999 V2000
   28.0389  -31.4406   38.6905 O   0  0  0  0  0  0  0  0  0  0  0  0
   27.3001  -31.7719   37.1840 P   0  0  1  0  0  5  0  0  0  0  0  0
   26.7569  -33.3678   37.2273 O   0  0  0  0  0  0  0  0  0  0  0  0
   26.1847  -30.8157   36.9054 O   0  0  0  0  0  0  0  0  0  0  0  0
   28.5204  -31.6678   36.0146 O   0  0  0  0  0  0  0  0  0  0  0  0
   28.1021  -32.0783   34.7704 C   0  0  1  0  0  0  0  0  0  0  0  0
   26.7957  -31.4191   34.3397 C   0  0  1  0  0  0  0  0  0  0  0  0
   26.5033  -30.4685   35.3163 O   0  0  0  0  0  0  0  0  0  0  0  0
   27.2100  -30.7041   33.0959 C   0  0  2  0  0  0  0  0  0  0  0  0
   26.1895  -30.6776   32.0854 N   0  0  0  0  0  0  0  0  0  0  0  0
   25.2834  -29.6953   31.9681 C   0  0  0  0  0  0  0  0  0  0  0  0
   25.0584  -28.5633   32.6572 N   0  0  0  0  0  0  0  0  0  0  0  0
   24.0663  -27.7153   32.3427 C   0  0  0  0  0  0  0  0  0  0  0  0
   23.2566  -27.9934   31.3012 N   0  0  0  0  0  0  0  0  0  0  0  0
   23.4102  -29.1023   30.5583 C   0  0  0  0  0  0  0  0  0  0  0  0
   22.5520  -29.3854   29.4623 N   0  0  0  0  0  0  0  0  0  0  0  0
   24.4360  -29.9598   30.8993 C   0  0  0  0  0  0  0  0  0  0  0  0
   24.8806  -31.1349   30.3944 N   0  0  0  0  0  0  0  0  0  0  0  0
   25.9351  -31.5680   31.1062 C   0  0  0  0  0  0  0  0  0  0  0  0
   28.2848  -31.4751   32.6072 O   0  0  0  0  0  0  0  0  0  0  0  0
   29.0890  -31.5124   33.7437 C   0  0  2  0  0  0  0  0  0  0  0  0
   30.2014  -32.4810   33.5102 C   0  0  0  0  0  0  0  0  0  0  0  0
   29.6925  -33.5826   32.8258 O   0  0  0  0  0  0  0  0  0  0  0  0
   30.9291  -34.7047   32.5620 P   0  0  2  0  0  5  0  0  0  0  0  0
   31.0096  -34.8794   31.0448 O   0  0  0  0  0  0  0  0  0  0  0  0
   30.4712  -36.1683   33.2248 O   0  0  0  0  0  0  0  0  0  0  0  0
   32.4286  -34.1812   33.0921 O   0  0  0  0  0  0  0  0  0  0  0  0
   33.2925  -33.3298   31.9111 P   0  0  1  0  0  5  0  0  0  0  0  0
   34.9680  -33.4218   32.2366 O   0  0  0  0  0  0  0  0  0  0  0  0
   33.0655  -33.8824   30.5386 O   0  0  0  0  0  0  0  0  0  0  0  0
   32.8684  -31.7044   32.0495 O   0  0  0  0  0  0  0  0  0  0  0  0
   33.9349  -30.8732   32.3484 C   0  0  0  0  0  0  0  0  0  0  0  0
   33.6757  -30.3328   33.7445 C   0  0  1  0  0  0  0  0  0  0  0  0
   32.3691  -29.5535   33.6590 C   0  0  0  0  0  0  0  0  0  0  0  0
   33.6048  -31.5050   34.6690 C   0  0  0  0  0  0  0  0  0  0  0  0
   34.8210  -29.3926   34.0778 C   0  0  1  0  0  0  0  0  0  0  0  0
   35.9546  -30.2301   34.2256 O   0  0  0  0  0  0  0  0  0  0  0  0
   35.0518  -28.4155   32.9946 C   0  0  0  0  0  0  0  0  0  0  0  0
   34.1842  -27.5113   32.7627 O   0  0  0  0  0  0  0  0  0  0  0  0
   36.2110  -28.4284   32.1783 N   0  0  0  0  0  0  0  0  0  0  0  0
   36.6538  -27.1607   31.5857 C   0  0  0  0  0  0  0  0  0  0  0  0
   37.9465  -27.4605   30.8818 C   0  0  0  0  0  0  0  0  0  0  0  0
   38.5074  -26.1697   30.3469 C   0  0  0  0  0  0  0  0  0  0  0  0
   37.9336  -25.6625   29.3908 O   0  0  0  0  0  0  0  0  0  0  0  0
   39.6255  -25.5837   30.9194 N   0  0  0  0  0  0  0  0  0  0  0  0
   40.3952  -24.4807   30.5468 C   0  0  0  0  0  0  0  0  0  0  0  0
   40.1122  -23.6264   29.3972 C   0  0  0  0  0  0  0  0  0  0  0  0
   40.9037  -22.4547   29.2056 N   0  0  0  0  0  0  0  0  0  0  0  0
   42.2135  -22.6803   28.5914 C   0  0  0  0  0  0  0  0  0  0  0  0
   42.6036  -23.8458   28.3411 O   0  0  0  0  0  0  0  0  0  0  0  0
   43.0569  -21.5229   28.2873 C   0  0  1  0  0  0  0  0  0  0  0  0
   42.7948  -21.0538   26.8667 C   0  0  0  0  0  0  0  0  0  0  0  0
   42.7849  -20.1955   29.4016 S   0  0  1  0  0  6  0  0  0  0  0  0
   43.7814  -19.0784   29.1772 O   0  0  0  0  0  0  0  0  0  0  0  0
   41.2667  -19.5522   29.0789 O   0  0  0  0  0  0  0  0  0  0  0  0
   42.9096  -20.6610   30.8040 O   0  0  0  0  0  0  0  0  0  0  0  0
  2  1  1  1
  2  3  1  0
  2  4  2  0
  2  5  1  0
  6  5  1  1
  6  7  1  0
  6 21  1  0
  7  8  1  1
  7  9  1  0
  9 10  1  6
  9 20  1  0
 10 11  1  0
 10 19  1  0
 11 12  2  0
 11 17  1  0
 12 13  1  0
 13 14  2  0
 14 15  1  0
 15 16  1  0
 15 17  2  0
 17 18  1  0
 18 19  2  0
 20 21  1  0
 21 22  1  6
 22 23  1  0
 23 24  1  0
 24 25  2  0
 24 26  1  1
 24 27  1  0
 27 28  1  0
 28 29  1  1
 28 30  2  0
 28 31  1  0
 31 32  1  0
 32 33  1  0
 33 34  1  6
 33 35  1  0
 33 36  1  0
 36 37  1  6
 36 38  1  0
 38 39  2  0
 38 40  1  0
 40 41  1  0
 41 42  1  0
 42 43  1  0
 43 44  2  0
 43 45  1  0
 45 46  1  0
 46 47  1  0
 47 48  1  0
 48 49  1  0
 49 50  2  0
 49 51  1  0
 51 52  1  6
 51 53  1  0
 53 54  2  0
 53 55  1  1
 53 56  2  0
M  END
$$$$
