
     RDKit          3D

 56 58  0  0  0  0  0  0  0  0999 V2000
   31.9178  -35.5100   27.4815 O   0  0  0  0  0  0  0  0  0  0  0  0
   30.9505  -35.1179   28.8363 P   0  0  1  0  0  5  0  0  0  0  0  0
   30.3059  -36.5582   29.4312 O   0  0  0  0  0  0  0  0  0  0  0  0
   31.7440  -34.3956   29.8779 O   0  0  0  0  0  0  0  0  0  0  0  0
   29.6700  -34.1729   28.2581 O   0  0  0  0  0  0  0  0  0  0  0  0
   28.8396  -33.7302   29.2611 C   0  0  1  0  0  0  0  0  0  0  0  0
   27.6154  -34.6204   29.4498 C   0  0  1  0  0  0  0  0  0  0  0  0
   27.8048  -35.7188   28.6129 O   0  0  0  0  0  0  0  0  0  0  0  0
   27.7811  -35.0718   30.8636 C   0  0  2  0  0  0  0  0  0  0  0  0
   26.5368  -35.2179   31.5662 N   0  0  0  0  0  0  0  0  0  0  0  0
   25.3672  -35.4774   30.9627 C   0  0  0  0  0  0  0  0  0  0  0  0
   25.0153  -35.6647   29.6788 N   0  0  0  0  0  0  0  0  0  0  0  0
   23.7497  -35.9186   29.3100 C   0  0  0  0  0  0  0  0  0  0  0  0
   22.7838  -35.9918   30.2478 N   0  0  0  0  0  0  0  0  0  0  0  0
   23.0470  -35.8178   31.5537 C   0  0  0  0  0  0  0  0  0  0  0  0
   22.0220  -35.8978   32.5339 N   0  0  0  0  0  0  0  0  0  0  0  0
   24.3544  -35.5577   31.9104 C   0  0  0  0  0  0  0  0  0  0  0  0
   24.9756  -35.3357   33.0928 N   0  0  0  0  0  0  0  0  0  0  0  0
   26.2880  -35.1312   32.8879 C   0  0  0  0  0  0  0  0  0  0  0  0
   28.5009  -34.0215   31.4696 O   0  0  0  0  0  0  0  0  0  0  0  0
   29.5767  -33.9297   30.5897 C   0  0  2  0  0  0  0  0  0  0  0  0
   30.3678  -32.7090   30.9281 C   0  0  0  0  0  0  0  0  0  0  0  0
   29.5383  -31.8177   31.6052 O   0  0  0  0  0  0  0  0  0  0  0  0
   30.2210  -31.4378   33.1043 P   0  0  2  0  0  5  0  0  0  0  0  0
   29.0713  -31.5105   34.1103 O   0  0  0  0  0  0  0  0  0  0  0  0
   30.7649  -29.8589   33.0577 O   0  0  0  0  0  0  0  0  0  0  0  0
   31.3949  -32.5253   33.5970 O   0  0  0  0  0  0  0  0  0  0  0  0
   32.9614  -32.0601   33.1545 P   0  0  1  0  0  5  0  0  0  0  0  0
   33.6668  -31.1307   34.4036 O   0  0  0  0  0  0  0  0  0  0  0  0
   33.8509  -33.2384   32.9076 O   0  0  0  0  0  0  0  0  0  0  0  0
   32.8265  -31.0402   31.8194 O   0  0  0  0  0  0  0  0  0  0  0  0
   33.3010  -29.7592   32.0458 C   0  0  0  0  0  0  0  0  0  0  0  0
   33.4015  -29.0950   30.6830 C   0  0  1  0  0  0  0  0  0  0  0  0
   32.1230  -29.4624   29.9399 C   0  0  0  0  0  0  0  0  0  0  0  0
   33.5487  -27.6257   30.9143 C   0  0  0  0  0  0  0  0  0  0  0  0
   34.6040  -29.7005   29.9801 C   0  0  1  0  0  0  0  0  0  0  0  0
   34.1452  -30.0265   28.6795 O   0  0  0  0  0  0  0  0  0  0  0  0
   35.7222  -28.7394   29.8959 C   0  0  0  0  0  0  0  0  0  0  0  0
   36.1705  -28.3886   28.7556 O   0  0  0  0  0  0  0  0  0  0  0  0
   36.3402  -28.1731   31.0393 N   0  0  0  0  0  0  0  0  0  0  0  0
   37.2724  -27.0569   30.8403 C   0  0  0  0  0  0  0  0  0  0  0  0
   38.2960  -27.1707   31.9338 C   0  0  0  0  0  0  0  0  0  0  0  0
   38.3631  -25.8543   32.6615 C   0  0  0  0  0  0  0  0  0  0  0  0
   39.1761  -25.0315   32.2583 O   0  0  0  0  0  0  0  0  0  0  0  0
   37.5341  -25.5902   33.7406 N   0  0  0  0  0  0  0  0  0  0  0  0
   37.3547  -24.4477   34.5220 C   0  0  0  0  0  0  0  0  0  0  0  0
   36.2313  -24.2359   35.4300 C   0  0  0  0  0  0  0  0  0  0  0  0
   35.6191  -22.9477   35.4705 N   0  0  0  0  0  0  0  0  0  0  0  0
   34.8680  -22.6521   36.6920 C   0  0  0  0  0  0  0  0  0  0  0  0
   34.7905  -23.5034   37.6097 O   0  0  0  0  0  0  0  0  0  0  0  0
   34.2051  -21.3524   36.8133 C   0  0  1  0  0  0  0  0  0  0  0  0
   32.7505  -21.4752   36.3939 C   0  0  0  0  0  0  0  0  0  0  0  0
   34.2918  -20.7155   38.4456 S   0  0  1  0  0  6  0  0  0  0  0  0
   32.9634  -20.8517   39.1585 O   0  0  0  0  0  0  0  0  0  0  0  0
   35.3928  -21.6479   39.3067 O   0  0  0  0  0  0  0  0  0  0  0  0
   34.6681  -19.2813   38.4241 O   0  0  0  0  0  0  0  0  0  0  0  0
  2  1  1  6
  2  3  1  0
  2  4  2  0
  2  5  1  0
  6  5  1  6
  6  7  1  0
  6 21  1  0
  7  8  1  6
  7  9  1  0
  9 10  1  1
  9 20  1  0
 10 11  1  0
 10 19  1  0
 11 12  2  0
 11 17  1  0
 12 13  1  0
 13 14  2  0
 14 15  1  0
 15 16  1  0
 15 17  2  0
 17 18  1  0
 18 19  2  0
 20 21  1  0
 21 22  1  1
 22 23  1  0
 23 24  1  0
 24 25  2  0
 24 26  1  6
 24 27  1  0
 27 28  1  0
 28 29  1  1
 28 30  2  0
 28 31  1  0
 31 32  1  0
 32 33  1  0
 33 34  1  6
 33 35  1  0
 33 36  1  0
 36 37  1  6
 36 38  1  0
 38 39  2  0
 38 40  1  0
 40 41  1  0
 41 42  1  0
 42 43  1  0
 43 44  2  0
 43 45  1  0
 45 46  1  0
 46 47  1  0
 47 48  1  0
 48 49  1  0
 49 50  2  0
 49 51  1  0
 51 52  1  1
 51 53  1  0
 53 54  2  0
 53 55  1  1
 53 56  2  0
M  END
$$$$
