
     RDKit          3D

 56 58  0  0  0  0  0  0  0  0999 V2000
   27.2747  -32.4043   33.7637 O   0  0  0  0  0  0  0  0  0  0  0  0
   27.1924  -33.2400   35.2535 P   0  0  1  0  0  5  0  0  0  0  0  0
   27.5852  -32.1419   36.4717 O   0  0  0  0  0  0  0  0  0  0  0  0
   25.8387  -33.8391   35.4649 O   0  0  0  0  0  0  0  0  0  0  0  0
   28.4013  -34.4250   35.2098 O   0  0  0  0  0  0  0  0  0  0  0  0
   29.4989  -34.0391   34.4764 C   0  0  1  0  0  0  0  0  0  0  0  0
   30.7396  -33.8268   35.3380 C   0  0  1  0  0  0  0  0  0  0  0  0
   30.3930  -34.2439   36.6221 O   0  0  0  0  0  0  0  0  0  0  0  0
   31.6880  -34.8244   34.7590 C   0  0  2  0  0  0  0  0  0  0  0  0
   33.0536  -34.3793   34.7555 N   0  0  0  0  0  0  0  0  0  0  0  0
   33.5395  -33.4616   35.6048 C   0  0  0  0  0  0  0  0  0  0  0  0
   32.9908  -32.7516   36.6058 N   0  0  0  0  0  0  0  0  0  0  0  0
   33.6963  -31.8713   37.3335 C   0  0  0  0  0  0  0  0  0  0  0  0
   35.0034  -31.6794   37.0645 N   0  0  0  0  0  0  0  0  0  0  0  0
   35.6318  -32.3468   36.0822 C   0  0  0  0  0  0  0  0  0  0  0  0
   37.0097  -32.1378   35.8075 N   0  0  0  0  0  0  0  0  0  0  0  0
   34.8877  -33.2465   35.3468 C   0  0  0  0  0  0  0  0  0  0  0  0
   35.1734  -34.0739   34.3138 N   0  0  0  0  0  0  0  0  0  0  0  0
   34.0717  -34.7559   33.9568 C   0  0  0  0  0  0  0  0  0  0  0  0
   31.2684  -34.9481   33.4184 O   0  0  0  0  0  0  0  0  0  0  0  0
   29.9197  -35.2347   33.6150 C   0  0  2  0  0  0  0  0  0  0  0  0
   29.2239  -35.1882   32.2943 C   0  0  0  0  0  0  0  0  0  0  0  0
   29.7911  -34.1701   31.5309 O   0  0  0  0  0  0  0  0  0  0  0  0
   29.2510  -34.2935   29.9338 P   0  0  2  0  0  5  0  0  0  0  0  0
   29.5815  -32.9497   29.2827 O   0  0  0  0  0  0  0  0  0  0  0  0
   27.5892  -34.4649   29.9448 O   0  0  0  0  0  0  0  0  0  0  0  0
   30.0312  -35.4872   29.0565 O   0  0  0  0  0  0  0  0  0  0  0  0
   31.7048  -35.2529   28.9550 P   0  0  1  0  0  5  0  0  0  0  0  0
   32.5177  -36.7262   29.2555 O   0  0  0  0  0  0  0  0  0  0  0  0
   32.1254  -34.7700   27.6021 O   0  0  0  0  0  0  0  0  0  0  0  0
   32.1436  -34.2039   30.1991 O   0  0  0  0  0  0  0  0  0  0  0  0
   33.4298  -34.4052   30.6710 C   0  0  0  0  0  0  0  0  0  0  0  0
   34.0641  -33.0289   30.7798 C   0  0  1  0  0  0  0  0  0  0  0  0
   35.0071  -33.0928   31.9750 C   0  0  0  0  0  0  0  0  0  0  0  0
   34.7656  -32.7593   29.4879 C   0  0  0  0  0  0  0  0  0  0  0  0
   32.9427  -32.0421   31.0544 C   0  0  1  0  0  0  0  0  0  0  0  0
   32.3104  -32.5200   32.2291 O   0  0  0  0  0  0  0  0  0  0  0  0
   33.4645  -30.6789   31.2795 C   0  0  0  0  0  0  0  0  0  0  0  0
   34.1267  -30.0951   30.3604 O   0  0  0  0  0  0  0  0  0  0  0  0
   33.2664  -29.9674   32.4897 N   0  0  0  0  0  0  0  0  0  0  0  0
   33.7062  -28.5683   32.5495 C   0  0  0  0  0  0  0  0  0  0  0  0
   33.5878  -28.1570   33.9894 C   0  0  0  0  0  0  0  0  0  0  0  0
   33.8820  -26.6838   34.0890 C   0  0  0  0  0  0  0  0  0  0  0  0
   34.1982  -26.1040   33.0573 O   0  0  0  0  0  0  0  0  0  0  0  0
   33.7938  -26.0169   35.3010 N   0  0  0  0  0  0  0  0  0  0  0  0
   33.9284  -24.6688   35.6364 C   0  0  0  0  0  0  0  0  0  0  0  0
   32.8301  -23.7070   35.6491 C   0  0  0  0  0  0  0  0  0  0  0  0
   31.4983  -24.1931   35.8108 N   0  0  0  0  0  0  0  0  0  0  0  0
   30.5336  -23.7101   34.8210 C   0  0  0  0  0  0  0  0  0  0  0  0
   30.8468  -22.7914   34.0268 O   0  0  0  0  0  0  0  0  0  0  0  0
   29.1998  -24.3127   34.7862 C   0  0  1  0  0  0  0  0  0  0  0  0
   29.1403  -25.4877   35.7468 C   0  0  0  0  0  0  0  0  0  0  0  0
   27.9422  -23.1594   35.1936 S   0  0  1  0  0  6  0  0  0  0  0  0
   27.2004  -23.5767   36.4454 O   0  0  0  0  0  0  0  0  0  0  0  0
   28.6806  -21.6914   35.5438 O   0  0  0  0  0  0  0  0  0  0  0  0
   26.9642  -23.0443   34.0849 O   0  0  0  0  0  0  0  0  0  0  0  0
  2  1  1  6
  2  3  1  0
  2  4  2  0
  2  5  1  0
  6  5  1  1
  6  7  1  0
  6 21  1  0
  7  8  1  1
  7  9  1  0
  9 10  1  6
  9 20  1  0
 10 11  1  0
 10 19  1  0
 11 12  2  0
 11 17  1  0
 12 13  1  0
 13 14  2  0
 14 15  1  0
 15 16  1  0
 15 17  2  0
 17 18  1  0
 18 19  2  0
 20 21  1  0
 21 22  1  6
 22 23  1  0
 23 24  1  0
 24 25  2  0
 24 26  1  1
 24 27  1  0
 27 28  1  0
 28 29  1  1
 28 30  2  0
 28 31  1  0
 31 32  1  0
 32 33  1  0
 33 34  1  1
 33 35  1  0
 33 36  1  0
 36 37  1  1
 36 38  1  0
 38 39  2  0
 38 40  1  0
 40 41  1  0
 41 42  1  0
 42 43  1  0
 43 44  2  0
 43 45  1  0
 45 46  1  0
 46 47  1  0
 47 48  1  0
 48 49  1  0
 49 50  2  0
 49 51  1  0
 51 52  1  1
 51 53  1  0
 53 54  2  0
 53 55  1  1
 53 56  2  0
M  END
$$$$
