
     RDKit          3D

 56 58  0  0  0  0  0  0  0  0999 V2000
   17.0377   28.7667   16.0128 O   0  0  0  0  0  0  0  0  0  0  0  0
   17.8236   27.2648   15.7856 P   0  0  1  0  0  5  0  0  0  0  0  0
   17.0301   26.4635   14.5317 O   0  0  0  0  0  0  0  0  0  0  0  0
   19.2771   27.4531   15.4887 O   0  0  0  0  0  0  0  0  0  0  0  0
   17.5852   26.3752   17.2065 O   0  0  0  0  0  0  0  0  0  0  0  0
   18.6863   26.3831   18.0307 C   0  0  1  0  0  0  0  0  0  0  0  0
   18.7994   27.6632   18.8524 C   0  0  1  0  0  0  0  0  0  0  0  0
   17.6327   28.3845   18.6048 O   0  0  0  0  0  0  0  0  0  0  0  0
   18.7397   27.1363   20.2484 C   0  0  2  0  0  0  0  0  0  0  0  0
   19.5641   27.8667   21.1704 N   0  0  0  0  0  0  0  0  0  0  0  0
   19.2198   29.0499   21.7005 C   0  0  0  0  0  0  0  0  0  0  0  0
   18.1390   29.8383   21.5687 N   0  0  0  0  0  0  0  0  0  0  0  0
   18.0179   31.0067   22.2185 C   0  0  0  0  0  0  0  0  0  0  0  0
   19.0064   31.4202   23.0369 N   0  0  0  0  0  0  0  0  0  0  0  0
   20.1212   30.6947   23.2271 C   0  0  0  0  0  0  0  0  0  0  0  0
   21.1564   31.1391   24.0923 N   0  0  0  0  0  0  0  0  0  0  0  0
   20.2247   29.4974   22.5493 C   0  0  0  0  0  0  0  0  0  0  0  0
   21.1711   28.5304   22.4965 N   0  0  0  0  0  0  0  0  0  0  0  0
   20.7756   27.5490   21.6679 C   0  0  0  0  0  0  0  0  0  0  0  0
   19.2631   25.8316   20.1379 O   0  0  0  0  0  0  0  0  0  0  0  0
   18.4511   25.3331   19.1220 C   0  0  2  0  0  0  0  0  0  0  0  0
   18.9883   24.0092   18.6872 C   0  0  0  0  0  0  0  0  0  0  0  0
   19.6282   24.1725   17.4605 O   0  0  0  0  0  0  0  0  0  0  0  0
   21.3013   24.2194   17.6976 P   0  0  2  0  0  5  0  0  0  0  0  0
   21.5246   23.7736   19.1435 O   0  0  0  0  0  0  0  0  0  0  0  0
   21.8147   25.8035   17.5626 O   0  0  0  0  0  0  0  0  0  0  0  0
   22.1449   23.1662   16.7065 O   0  0  0  0  0  0  0  0  0  0  0  0
   22.1721   21.5780   17.2923 P   0  0  1  0  0  5  0  0  0  0  0  0
   21.8882   21.5749   18.9779 O   0  0  0  0  0  0  0  0  0  0  0  0
   21.1223   20.7234   16.6535 O   0  0  0  0  0  0  0  0  0  0  0  0
   23.7343   20.9854   17.0708 O   0  0  0  0  0  0  0  0  0  0  0  0
   24.6014   21.2983   18.1041 C   0  0  0  0  0  0  0  0  0  0  0  0
   25.9487   20.7082   17.7232 C   0  0  1  0  0  0  0  0  0  0  0  0
   25.8143   20.2504   16.2760 C   0  0  0  0  0  0  0  0  0  0  0  0
   26.9728   21.7805   17.9108 C   0  0  0  0  0  0  0  0  0  0  0  0
   26.1822   19.5108   18.6278 C   0  0  1  0  0  0  0  0  0  0  0  0
   25.0073   19.4075   19.4135 O   0  0  0  0  0  0  0  0  0  0  0  0
   26.3788   18.2727   17.8468 C   0  0  0  0  0  0  0  0  0  0  0  0
   27.5561   17.8200   17.6645 O   0  0  0  0  0  0  0  0  0  0  0  0
   25.3062   17.5435   17.2742 N   0  0  0  0  0  0  0  0  0  0  0  0
   25.3348   16.0793   17.3728 C   0  0  0  0  0  0  0  0  0  0  0  0
   25.7212   15.5788   16.0102 C   0  0  0  0  0  0  0  0  0  0  0  0
   26.7849   14.5260   16.1742 C   0  0  0  0  0  0  0  0  0  0  0  0
   27.0892   14.2095   17.3178 O   0  0  0  0  0  0  0  0  0  0  0  0
   27.3886   13.9411   15.0719 N   0  0  0  0  0  0  0  0  0  0  0  0
   28.2936   12.8851   14.9544 C   0  0  0  0  0  0  0  0  0  0  0  0
   28.9928   12.5296   13.7231 C   0  0  0  0  0  0  0  0  0  0  0  0
   29.1863   11.1483   13.4217 N   0  0  0  0  0  0  0  0  0  0  0  0
   28.6774   10.7170   12.1185 C   0  0  0  0  0  0  0  0  0  0  0  0
   28.1625   11.5479   11.3327 O   0  0  0  0  0  0  0  0  0  0  0  0
   28.7730    9.3009   11.7594 C   0  0  1  0  0  0  0  0  0  0  0  0
   27.4251    8.8020   11.2683 C   0  0  0  0  0  0  0  0  0  0  0  0
   29.9883    9.0116   10.5277 S   0  0  1  0  0  6  0  0  0  0  0  0
   31.3360    9.5580   10.9483 O   0  0  0  0  0  0  0  0  0  0  0  0
   30.1766    7.3498   10.3671 O   0  0  0  0  0  0  0  0  0  0  0  0
   29.5978    9.6573    9.2511 O   0  0  0  0  0  0  0  0  0  0  0  0
  2  1  1  1
  2  3  1  0
  2  4  2  0
  2  5  1  0
  6  5  1  6
  6  7  1  0
  6 21  1  0
  7  8  1  6
  7  9  1  0
  9 10  1  1
  9 20  1  0
 10 11  1  0
 10 19  1  0
 11 12  2  0
 11 17  1  0
 12 13  1  0
 13 14  2  0
 14 15  1  0
 15 16  1  0
 15 17  2  0
 17 18  1  0
 18 19  2  0
 20 21  1  0
 21 22  1  6
 22 23  1  0
 23 24  1  0
 24 25  2  0
 24 26  1  1
 24 27  1  0
 27 28  1  0
 28 29  1  1
 28 30  2  0
 28 31  1  0
 31 32  1  0
 32 33  1  0
 33 34  1  6
 33 35  1  0
 33 36  1  0
 36 37  1  1
 36 38  1  0
 38 39  2  0
 38 40  1  0
 40 41  1  0
 41 42  1  0
 42 43  1  0
 43 44  2  0
 43 45  1  0
 45 46  1  0
 46 47  1  0
 47 48  1  0
 48 49  1  0
 49 50  2  0
 49 51  1  0
 51 52  1  6
 51 53  1  0
 53 54  2  0
 53 55  1  6
 53 56  2  0
M  END
$$$$
