
     RDKit          3D

 14 15  0  0  0  0  0  0  0  0999 V2000
   25.6877   42.9896   69.6183 N   0  0  0  0  0  4  0  0  0  0  0  0
   26.3673   41.9244   69.8086 C   0  0  0  0  0  0  0  0  0  0  0  0
   27.7516   42.0339   70.1844 N   0  0  0  0  0  0  0  0  0  0  0  0
   25.7766   40.5813   69.6421 C   0  0  2  0  0  0  0  0  0  0  0  0
   24.3254   40.4417   70.0614 C   0  0  0  0  0  0  0  0  0  0  0  0
   24.7019   39.1281   70.7695 C   0  0  0  0  0  0  0  0  0  0  0  0
   26.1312   39.6873   70.8176 C   0  0  0  0  0  0  0  0  0  0  0  0
   26.0736   40.0260   68.3076 C   0  0  0  0  0  0  0  0  0  0  0  0
   25.3665   40.3092   67.1763 C   0  0  0  0  0  0  0  0  0  0  0  0
   25.6806   39.7602   65.9444 C   0  0  0  0  0  0  0  0  0  0  0  0
   24.7401   40.1587   64.5297 Cl  0  0  0  0  0  0  0  0  0  0  0  0
   26.7390   38.8939   65.8243 C   0  0  0  0  0  0  0  0  0  0  0  0
   27.4754   38.5875   66.9553 C   0  0  0  0  0  0  0  0  0  0  0  0
   27.1434   39.1471   68.1724 C   0  0  0  0  0  0  0  0  0  0  0  0
  1  2  2  3
  2  3  1  0
  2  4  1  0
  7  4  1  6
  4  5  1  0
  4  8  1  6
  5  6  1  1
  6  7  1  1
  8 14  1  0
  8  9  2  0
  9 10  1  0
 10 11  1  0
 10 12  2  0
 12 13  1  0
 13 14  2  0
M  CHG  1   1   1
M  END
$$$$
