
     RDKit          3D

 14 15  0  0  0  0  0  0  0  0999 V2000
   29.5081   48.8639   43.3777 N   0  0  0  0  0  4  0  0  0  0  0  0
   29.8989   49.2415   44.5340 C   0  0  0  0  0  0  0  0  0  0  0  0
   31.2338   49.7548   44.6898 N   0  0  0  0  0  0  0  0  0  0  0  0
   29.0240   49.1554   45.7205 C   0  0  2  0  0  0  0  0  0  0  0  0
   27.5326   49.1611   45.4429 C   0  0  0  0  0  0  0  0  0  0  0  0
   27.3664   50.1693   46.5937 C   0  0  0  0  0  0  0  0  0  0  0  0
   28.8417   50.5229   46.3558 C   0  0  0  0  0  0  0  0  0  0  0  0
   29.4621   48.0825   46.6338 C   0  0  0  0  0  0  0  0  0  0  0  0
   29.1964   46.7567   46.4547 C   0  0  0  0  0  0  0  0  0  0  0  0
   29.6258   45.7844   47.3422 C   0  0  0  0  0  0  0  0  0  0  0  0
   29.2562   44.1021   47.0621 Cl  0  0  0  0  0  0  0  0  0  0  0  0
   30.3490   46.1361   48.4549 C   0  0  0  0  0  0  0  0  0  0  0  0
   30.6342   47.4742   48.6634 C   0  0  0  0  0  0  0  0  0  0  0  0
   30.1956   48.4256   47.7649 C   0  0  0  0  0  0  0  0  0  0  0  0
  1  2  2  3
  2  3  1  0
  2  4  1  0
  7  4  1  6
  4  5  1  0
  4  8  1  1
  5  6  1  1
  6  7  1  1
  8 14  1  0
  8  9  2  0
  9 10  1  0
 10 11  1  0
 10 12  2  0
 12 13  1  0
 13 14  2  0
M  CHG  1   1   1
M  END
$$$$
