
     RDKit          3D

 14 15  0  0  0  0  0  0  0  0999 V2000
   27.8505   42.1591   66.2187 N   0  0  0  0  0  4  0  0  0  0  0  0
   28.6596   41.2165   65.9194 C   0  0  0  0  0  0  0  0  0  0  0  0
   29.7526   41.4886   65.0245 N   0  0  0  0  0  0  0  0  0  0  0  0
   28.4992   39.8502   66.4560 C   0  0  2  0  0  0  0  0  0  0  0  0
   29.6049   39.3681   67.3760 C   0  0  0  0  0  0  0  0  0  0  0  0
   29.5930   38.0293   66.6171 C   0  0  0  0  0  0  0  0  0  0  0  0
   28.9783   38.8170   65.4511 C   0  0  0  0  0  0  0  0  0  0  0  0
   27.1390   39.6384   66.9874 C   0  0  0  0  0  0  0  0  0  0  0  0
   26.0017   39.6600   66.2349 C   0  0  0  0  0  0  0  0  0  0  0  0
   24.7443   39.4594   66.7792 C   0  0  0  0  0  0  0  0  0  0  0  0
   23.3231   39.4982   65.7675 Cl  0  0  0  0  0  0  0  0  0  0  0  0
   24.6037   39.2272   68.1250 C   0  0  0  0  0  0  0  0  0  0  0  0
   25.7401   39.1993   68.9144 C   0  0  0  0  0  0  0  0  0  0  0  0
   26.9828   39.4021   68.3493 C   0  0  0  0  0  0  0  0  0  0  0  0
  1  2  2  3
  2  3  1  0
  2  4  1  0
  7  4  1  6
  4  5  1  0
  4  8  1  1
  5  6  1  1
  6  7  1  1
  8 14  1  0
  8  9  2  0
  9 10  1  0
 10 11  1  0
 10 12  2  0
 12 13  1  0
 13 14  2  0
M  CHG  1   1   1
M  END
$$$$
