
     RDKit          3D

 14 15  0  0  0  0  0  0  0  0999 V2000
   12.3525   41.3385   53.2238 N   0  0  0  0  0  4  0  0  0  0  0  0
   13.3669   40.5816   53.3986 C   0  0  0  0  0  0  0  0  0  0  0  0
   13.1615   39.1772   53.6334 N   0  0  0  0  0  0  0  0  0  0  0  0
   14.7464   41.1080   53.3790 C   0  0  2  0  0  0  0  0  0  0  0  0
   14.9621   42.3642   52.5564 C   0  0  0  0  0  0  0  0  0  0  0  0
   16.2335   41.7161   51.9802 C   0  0  0  0  0  0  0  0  0  0  0  0
   15.5891   40.3726   52.3515 C   0  0  0  0  0  0  0  0  0  0  0  0
   15.3151   41.1741   54.7390 C   0  0  0  0  0  0  0  0  0  0  0  0
   16.1950   40.2688   55.2552 C   0  0  0  0  0  0  0  0  0  0  0  0
   16.6998   40.3701   56.5407 C   0  0  0  0  0  0  0  0  0  0  0  0
   17.8236   39.1816   57.1486 Cl  0  0  0  0  0  0  0  0  0  0  0  0
   16.3194   41.4104   57.3518 C   0  0  0  0  0  0  0  0  0  0  0  0
   15.4275   42.3450   56.8555 C   0  0  0  0  0  0  0  0  0  0  0  0
   14.9378   42.2232   55.5709 C   0  0  0  0  0  0  0  0  0  0  0  0
  1  2  2  3
  2  3  1  0
  2  4  1  0
  7  4  1  6
  4  5  1  0
  4  8  1  1
  5  6  1  1
  6  7  1  1
  8 14  1  0
  8  9  2  0
  9 10  1  0
 10 11  1  0
 10 12  2  0
 12 13  1  0
 13 14  2  0
M  CHG  1   1   1
M  END
$$$$
