
     RDKit          3D

 14 15  0  0  0  0  0  0  0  0999 V2000
   11.3762   41.7878   57.2720 N   0  0  0  0  0  4  0  0  0  0  0  0
   12.1854   42.4551   56.5424 C   0  0  0  0  0  0  0  0  0  0  0  0
   12.3809   43.8547   56.8117 N   0  0  0  0  0  0  0  0  0  0  0  0
   12.9187   41.8345   55.4208 C   0  0  2  0  0  0  0  0  0  0  0  0
   12.6982   42.4648   54.0587 C   0  0  0  0  0  0  0  0  0  0  0  0
   12.5498   41.0482   53.4757 C   0  0  0  0  0  0  0  0  0  0  0  0
   12.1770   40.6154   54.9011 C   0  0  0  0  0  0  0  0  0  0  0  0
   14.3381   41.6188   55.7615 C   0  0  0  0  0  0  0  0  0  0  0  0
   14.8687   40.4231   56.1474 C   0  0  0  0  0  0  0  0  0  0  0  0
   16.2085   40.2692   56.4615 C   0  0  0  0  0  0  0  0  0  0  0  0
   16.8324   38.7144   56.9497 Cl  0  0  0  0  0  0  0  0  0  0  0  0
   17.0617   41.3425   56.3914 C   0  0  0  0  0  0  0  0  0  0  0  0
   16.5522   42.5691   56.0026 C   0  0  0  0  0  0  0  0  0  0  0  0
   15.2131   42.6982   55.6945 C   0  0  0  0  0  0  0  0  0  0  0  0
  1  2  2  3
  2  3  1  0
  2  4  1  0
  7  4  1  6
  4  5  1  0
  4  8  1  1
  5  6  1  1
  6  7  1  1
  8 14  1  0
  8  9  2  0
  9 10  1  0
 10 11  1  0
 10 12  2  0
 12 13  1  0
 13 14  2  0
M  CHG  1   1   1
M  END
$$$$
