
     RDKit          3D

 14 15  0  0  0  0  0  0  0  0999 V2000
   20.0403   38.9372   64.8037 N   0  0  0  0  0  4  0  0  0  0  0  0
   20.5518   39.5040   63.7793 C   0  0  0  0  0  0  0  0  0  0  0  0
   21.6926   38.9025   63.1418 N   0  0  0  0  0  0  0  0  0  0  0  0
   20.0137   40.7672   63.2358 C   0  0  2  0  0  0  0  0  0  0  0  0
   21.0089   41.9039   63.0985 C   0  0  0  0  0  0  0  0  0  0  0  0
   19.9532   42.8437   63.7076 C   0  0  0  0  0  0  0  0  0  0  0  0
   19.3399   41.5798   64.3277 C   0  0  0  0  0  0  0  0  0  0  0  0
   19.2020   40.5287   62.0268 C   0  0  0  0  0  0  0  0  0  0  0  0
   19.7102   40.3798   60.7699 C   0  0  0  0  0  0  0  0  0  0  0  0
   18.9075   40.1610   59.6629 C   0  0  0  0  0  0  0  0  0  0  0  0
   19.6134   39.9779   58.0776 Cl  0  0  0  0  0  0  0  0  0  0  0  0
   17.5439   40.0858   59.8029 C   0  0  0  0  0  0  0  0  0  0  0  0
   16.9989   40.2330   61.0665 C   0  0  0  0  0  0  0  0  0  0  0  0
   17.8190   40.4504   62.1551 C   0  0  0  0  0  0  0  0  0  0  0  0
  1  2  2  3
  2  3  1  0
  2  4  1  0
  7  4  1  6
  4  5  1  0
  4  8  1  6
  5  6  1  1
  6  7  1  1
  8 14  1  0
  8  9  2  0
  9 10  1  0
 10 11  1  0
 10 12  2  0
 12 13  1  0
 13 14  2  0
M  CHG  1   1   1
M  END
$$$$
