
     RDKit          3D

 14 15  0  0  0  0  0  0  0  0999 V2000
   29.5009   48.4235   42.9271 N   0  0  0  0  0  4  0  0  0  0  0  0
   30.0995   48.6589   44.0310 C   0  0  0  0  0  0  0  0  0  0  0  0
   31.5355   48.5854   44.0793 N   0  0  0  0  0  0  0  0  0  0  0  0
   29.3598   48.9931   45.2646 C   0  0  2  0  0  0  0  0  0  0  0  0
   27.9156   49.4168   45.0741 C   0  0  0  0  0  0  0  0  0  0  0  0
   28.1669   50.5644   46.0683 C   0  0  0  0  0  0  0  0  0  0  0  0
   29.6499   50.4198   45.6970 C   0  0  0  0  0  0  0  0  0  0  0  0
   29.5525   47.9617   46.3021 C   0  0  0  0  0  0  0  0  0  0  0  0
   29.4019   46.6215   46.0990 C   0  0  0  0  0  0  0  0  0  0  0  0
   29.5901   45.6896   47.1058 C   0  0  0  0  0  0  0  0  0  0  0  0
   29.3832   43.9863   46.7881 Cl  0  0  0  0  0  0  0  0  0  0  0  0
   29.9424   46.0987   48.3681 C   0  0  0  0  0  0  0  0  0  0  0  0
   30.1027   47.4528   48.6046 C   0  0  0  0  0  0  0  0  0  0  0  0
   29.9097   48.3630   47.5853 C   0  0  0  0  0  0  0  0  0  0  0  0
  1  2  2  3
  2  3  1  0
  2  4  1  0
  7  4  1  6
  4  5  1  0
  4  8  1  1
  5  6  1  1
  6  7  1  1
  8 14  1  0
  8  9  2  0
  9 10  1  0
 10 11  1  0
 10 12  2  0
 12 13  1  0
 13 14  2  0
M  CHG  1   1   1
M  END
$$$$
