
     RDKit          3D

 14 15  0  0  0  0  0  0  0  0999 V2000
   32.1143   48.9274   44.9748 N   0  0  0  0  0  4  0  0  0  0  0  0
   31.6105   50.0980   44.8839 C   0  0  0  0  0  0  0  0  0  0  0  0
   32.4711   51.2098   44.5789 N   0  0  0  0  0  0  0  0  0  0  0  0
   30.1703   50.3467   45.0948 C   0  0  2  0  0  0  0  0  0  0  0  0
   29.2328   49.6720   44.1114 C   0  0  0  0  0  0  0  0  0  0  0  0
   28.4577   50.9976   44.0079 C   0  0  0  0  0  0  0  0  0  0  0  0
   29.7560   51.6706   44.4766 C   0  0  0  0  0  0  0  0  0  0  0  0
   29.7949   50.1596   46.5096 C   0  0  0  0  0  0  0  0  0  0  0  0
   29.3001   49.0012   47.0326 C   0  0  0  0  0  0  0  0  0  0  0  0
   28.9576   48.8735   48.3682 C   0  0  0  0  0  0  0  0  0  0  0  0
   28.3285   47.3662   48.9825 Cl  0  0  0  0  0  0  0  0  0  0  0  0
   29.1102   49.9355   49.2247 C   0  0  0  0  0  0  0  0  0  0  0  0
   29.6102   51.1243   48.7227 C   0  0  0  0  0  0  0  0  0  0  0  0
   29.9448   51.2280   47.3878 C   0  0  0  0  0  0  0  0  0  0  0  0
  1  2  2  3
  2  3  1  0
  2  4  1  0
  7  4  1  6
  4  5  1  0
  4  8  1  1
  5  6  1  1
  6  7  1  1
  8 14  1  0
  8  9  2  0
  9 10  1  0
 10 11  1  0
 10 12  2  0
 12 13  1  0
 13 14  2  0
M  CHG  1   1   1
M  END
$$$$
