
     RDKit          3D

 14 15  0  0  0  0  0  0  0  0999 V2000
   31.6598   21.2528   51.6853 N   0  0  0  0  0  4  0  0  0  0  0  0
   31.7986   22.4972   51.4310 C   0  0  0  0  0  0  0  0  0  0  0  0
   31.6258   23.4530   52.4922 N   0  0  0  0  0  0  0  0  0  0  0  0
   32.1199   22.9859   50.0751 C   0  0  2  0  0  0  0  0  0  0  0  0
   30.9601   23.0339   49.0985 C   0  0  0  0  0  0  0  0  0  0  0  0
   31.8824   22.4039   48.0397 C   0  0  0  0  0  0  0  0  0  0  0  0
   32.7014   21.8704   49.2241 C   0  0  0  0  0  0  0  0  0  0  0  0
   32.9151   24.2279   50.1266 C   0  0  0  0  0  0  0  0  0  0  0  0
   33.0957   25.0758   49.0737 C   0  0  0  0  0  0  0  0  0  0  0  0
   33.8549   26.2300   49.1685 C   0  0  0  0  0  0  0  0  0  0  0  0
   34.0517   27.2782   47.7874 Cl  0  0  0  0  0  0  0  0  0  0  0  0
   34.4622   26.5615   50.3543 C   0  0  0  0  0  0  0  0  0  0  0  0
   34.2969   25.7202   51.4407 C   0  0  0  0  0  0  0  0  0  0  0  0
   33.5355   24.5751   51.3223 C   0  0  0  0  0  0  0  0  0  0  0  0
  1  2  2  3
  2  3  1  0
  2  4  1  0
  7  4  1  6
  4  5  1  0
  4  8  1  1
  5  6  1  1
  6  7  1  1
  8 14  1  0
  8  9  2  0
  9 10  1  0
 10 11  1  0
 10 12  2  0
 12 13  1  0
 13 14  2  0
M  CHG  1   1   1
M  END
$$$$
