
     RDKit          3D

 14 15  0  0  0  0  0  0  0  0999 V2000
   31.1096   21.9165   52.5385 N   0  0  0  0  0  4  0  0  0  0  0  0
   30.9539   22.5953   51.4673 C   0  0  0  0  0  0  0  0  0  0  0  0
   29.7754   23.4064   51.3164 N   0  0  0  0  0  0  0  0  0  0  0  0
   31.9436   22.5631   50.3718 C   0  0  2  0  0  0  0  0  0  0  0  0
   31.4013   22.1991   49.0026 C   0  0  0  0  0  0  0  0  0  0  0  0
   32.6090   21.2626   48.8213 C   0  0  0  0  0  0  0  0  0  0  0  0
   32.6855   21.2379   50.3548 C   0  0  0  0  0  0  0  0  0  0  0  0
   32.7942   23.7688   50.3812 C   0  0  0  0  0  0  0  0  0  0  0  0
   32.3428   25.0366   50.1597 C   0  0  0  0  0  0  0  0  0  0  0  0
   33.1807   26.1390   50.1748 C   0  0  0  0  0  0  0  0  0  0  0  0
   32.5471   27.7388   49.8843 Cl  0  0  0  0  0  0  0  0  0  0  0  0
   34.5226   25.9830   50.4192 C   0  0  0  0  0  0  0  0  0  0  0  0
   35.0101   24.7080   50.6478 C   0  0  0  0  0  0  0  0  0  0  0  0
   34.1557   23.6243   50.6277 C   0  0  0  0  0  0  0  0  0  0  0  0
  1  2  2  3
  2  3  1  0
  2  4  1  0
  7  4  1  6
  4  5  1  0
  4  8  1  6
  5  6  1  1
  6  7  1  1
  8 14  1  0
  8  9  2  0
  9 10  1  0
 10 11  1  0
 10 12  2  0
 12 13  1  0
 13 14  2  0
M  CHG  1   1   1
M  END
$$$$
