
     RDKit          3D

 14 15  0  0  0  0  0  0  0  0999 V2000
   12.5759   38.4933   55.9367 N   0  0  0  0  0  4  0  0  0  0  0  0
   13.0428   39.6239   55.5675 C   0  0  0  0  0  0  0  0  0  0  0  0
   13.0380   39.9614   54.1690 N   0  0  0  0  0  0  0  0  0  0  0  0
   13.5995   40.5919   56.5338 C   0  0  2  0  0  0  0  0  0  0  0  0
   13.1577   40.4153   57.9742 C   0  0  0  0  0  0  0  0  0  0  0  0
   12.9408   41.9371   58.0485 C   0  0  0  0  0  0  0  0  0  0  0  0
   12.8037   41.8854   56.5199 C   0  0  0  0  0  0  0  0  0  0  0  0
   15.0580   40.7399   56.3654 C   0  0  0  0  0  0  0  0  0  0  0  0
   15.9832   39.8375   56.8011 C   0  0  0  0  0  0  0  0  0  0  0  0
   17.3442   40.0212   56.6235 C   0  0  0  0  0  0  0  0  0  0  0  0
   18.4828   38.8323   57.2023 Cl  0  0  0  0  0  0  0  0  0  0  0  0
   17.8121   41.1446   55.9881 C   0  0  0  0  0  0  0  0  0  0  0  0
   16.8968   42.0784   55.5347 C   0  0  0  0  0  0  0  0  0  0  0  0
   15.5450   41.8737   55.7232 C   0  0  0  0  0  0  0  0  0  0  0  0
  1  2  2  3
  2  3  1  0
  2  4  1  0
  7  4  1  6
  4  5  1  0
  4  8  1  1
  5  6  1  1
  6  7  1  1
  8 14  1  0
  8  9  2  0
  9 10  1  0
 10 11  1  0
 10 12  2  0
 12 13  1  0
 13 14  2  0
M  CHG  1   1   1
M  END
$$$$
