
     RDKit          3D

 14 15  0  0  0  0  0  0  0  0999 V2000
   41.4251   40.6475   55.6618 N   0  0  0  0  0  4  0  0  0  0  0  0
   41.6052   39.8873   56.6729 C   0  0  0  0  0  0  0  0  0  0  0  0
   42.6063   38.8563   56.6054 N   0  0  0  0  0  0  0  0  0  0  0  0
   40.8065   40.0274   57.9071 C   0  0  2  0  0  0  0  0  0  0  0  0
   40.3060   41.4261   58.2144 C   0  0  0  0  0  0  0  0  0  0  0  0
   40.7427   41.2143   59.6749 C   0  0  0  0  0  0  0  0  0  0  0  0
   41.7096   40.1575   59.1213 C   0  0  0  0  0  0  0  0  0  0  0  0
   39.7675   38.9834   57.9954 C   0  0  0  0  0  0  0  0  0  0  0  0
   38.5899   39.0028   57.3076 C   0  0  0  0  0  0  0  0  0  0  0  0
   37.6416   38.0007   57.4256 C   0  0  0  0  0  0  0  0  0  0  0  0
   36.1517   38.0782   56.5206 Cl  0  0  0  0  0  0  0  0  0  0  0  0
   37.8656   36.9329   58.2589 C   0  0  0  0  0  0  0  0  0  0  0  0
   39.0519   36.8855   58.9701 C   0  0  0  0  0  0  0  0  0  0  0  0
   39.9822   37.8962   58.8362 C   0  0  0  0  0  0  0  0  0  0  0  0
  1  2  2  3
  2  3  1  0
  2  4  1  0
  7  4  1  6
  4  5  1  0
  4  8  1  1
  5  6  1  1
  6  7  1  1
  8 14  1  0
  8  9  2  0
  9 10  1  0
 10 11  1  0
 10 12  2  0
 12 13  1  0
 13 14  2  0
M  CHG  1   1   1
M  END
$$$$
