
     RDKit          3D

 14 15  0  0  0  0  0  0  0  0999 V2000
   36.6937   23.3266   49.7262 N   0  0  0  0  0  4  0  0  0  0  0  0
   35.4509   23.1989   49.9940 C   0  0  0  0  0  0  0  0  0  0  0  0
   34.5200   22.9876   48.9177 N   0  0  0  0  0  0  0  0  0  0  0  0
   34.9385   23.2739   51.3768 C   0  0  2  0  0  0  0  0  0  0  0  0
   35.8969   23.8426   52.4061 C   0  0  0  0  0  0  0  0  0  0  0  0
   35.4958   22.6947   53.3496 C   0  0  0  0  0  0  0  0  0  0  0  0
   35.0857   21.9355   52.0794 C   0  0  0  0  0  0  0  0  0  0  0  0
   33.5889   23.8692   51.4176 C   0  0  0  0  0  0  0  0  0  0  0  0
   33.3329   25.2088   51.4062 C   0  0  0  0  0  0  0  0  0  0  0  0
   32.0474   25.7220   51.4497 C   0  0  0  0  0  0  0  0  0  0  0  0
   31.7796   27.4462   51.4328 Cl  0  0  0  0  0  0  0  0  0  0  0  0
   30.9678   24.8758   51.5068 C   0  0  0  0  0  0  0  0  0  0  0  0
   31.1963   23.5109   51.5195 C   0  0  0  0  0  0  0  0  0  0  0  0
   32.4865   23.0227   51.4755 C   0  0  0  0  0  0  0  0  0  0  0  0
  1  2  2  3
  2  3  1  0
  2  4  1  0
  7  4  1  6
  4  5  1  0
  4  8  1  6
  5  6  1  1
  6  7  1  1
  8 14  1  0
  8  9  2  0
  9 10  1  0
 10 11  1  0
 10 12  2  0
 12 13  1  0
 13 14  2  0
M  CHG  1   1   1
M  END
$$$$
