
     RDKit          3D

 14 15  0  0  0  0  0  0  0  0999 V2000
   26.9165   47.6712   46.6927 N   0  0  0  0  0  4  0  0  0  0  0  0
   27.4775   48.5384   45.9405 C   0  0  0  0  0  0  0  0  0  0  0  0
   26.7438   49.7159   45.5600 N   0  0  0  0  0  0  0  0  0  0  0  0
   28.8551   48.3622   45.4386 C   0  0  2  0  0  0  0  0  0  0  0  0
   29.9615   48.8016   46.3789 C   0  0  0  0  0  0  0  0  0  0  0  0
   30.6469   49.4855   45.1826 C   0  0  0  0  0  0  0  0  0  0  0  0
   29.2530   49.5196   44.5393 C   0  0  0  0  0  0  0  0  0  0  0  0
   29.0501   47.0158   44.8672 C   0  0  0  0  0  0  0  0  0  0  0  0
   29.0675   45.8615   45.5935 C   0  0  0  0  0  0  0  0  0  0  0  0
   29.2579   44.6189   45.0130 C   0  0  0  0  0  0  0  0  0  0  0  0
   29.2709   43.1747   45.9924 Cl  0  0  0  0  0  0  0  0  0  0  0  0
   29.4391   44.5111   43.6564 C   0  0  0  0  0  0  0  0  0  0  0  0
   29.4263   45.6653   42.8929 C   0  0  0  0  0  0  0  0  0  0  0  0
   29.2347   46.8929   43.4939 C   0  0  0  0  0  0  0  0  0  0  0  0
  1  2  2  3
  2  3  1  0
  2  4  1  0
  7  4  1  6
  4  5  1  0
  4  8  1  6
  5  6  1  1
  6  7  1  1
  8 14  1  0
  8  9  2  0
  9 10  1  0
 10 11  1  0
 10 12  2  0
 12 13  1  0
 13 14  2  0
M  CHG  1   1   1
M  END
$$$$
