
     RDKit          3D

 14 15  0  0  0  0  0  0  0  0999 V2000
   27.4958   48.1588   43.5143 N   0  0  0  0  0  4  0  0  0  0  0  0
   28.6921   48.2963   43.9416 C   0  0  0  0  0  0  0  0  0  0  0  0
   29.7894   47.9659   43.0718 N   0  0  0  0  0  0  0  0  0  0  0  0
   28.9830   48.7736   45.3084 C   0  0  2  0  0  0  0  0  0  0  0  0
   27.8942   49.6017   45.9642 C   0  0  0  0  0  0  0  0  0  0  0  0
   28.9832   50.5838   46.4314 C   0  0  0  0  0  0  0  0  0  0  0  0
   29.8258   50.0365   45.2701 C   0  0  0  0  0  0  0  0  0  0  0  0
   29.5051   47.6853   46.1572 C   0  0  0  0  0  0  0  0  0  0  0  0
   29.1277   46.3783   46.0596 C   0  0  0  0  0  0  0  0  0  0  0  0
   29.6432   45.3907   46.8821 C   0  0  0  0  0  0  0  0  0  0  0  0
   29.1230   43.7338   46.7120 Cl  0  0  0  0  0  0  0  0  0  0  0  0
   30.5717   45.7072   47.8425 C   0  0  0  0  0  0  0  0  0  0  0  0
   30.9743   47.0256   47.9653 C   0  0  0  0  0  0  0  0  0  0  0  0
   30.4465   47.9927   47.1341 C   0  0  0  0  0  0  0  0  0  0  0  0
  1  2  2  3
  2  3  1  0
  2  4  1  0
  7  4  1  6
  4  5  1  0
  4  8  1  1
  5  6  1  1
  6  7  1  1
  8 14  1  0
  8  9  2  0
  9 10  1  0
 10 11  1  0
 10 12  2  0
 12 13  1  0
 13 14  2  0
M  CHG  1   1   1
M  END
$$$$
