
     RDKit          3D

 14 15  0  0  0  0  0  0  0  0999 V2000
   28.2446   51.0673   46.4166 N   0  0  0  0  0  4  0  0  0  0  0  0
   28.4485   50.0403   47.1489 C   0  0  0  0  0  0  0  0  0  0  0  0
   27.3698   49.5245   47.9489 N   0  0  0  0  0  0  0  0  0  0  0  0
   29.7642   49.3726   47.2085 C   0  0  2  0  0  0  0  0  0  0  0  0
   30.4154   49.3176   48.5776 C   0  0  0  0  0  0  0  0  0  0  0  0
   31.7403   49.7367   47.9161 C   0  0  0  0  0  0  0  0  0  0  0  0
   30.8716   50.3264   46.7955 C   0  0  0  0  0  0  0  0  0  0  0  0
   29.7418   48.0782   46.5003 C   0  0  0  0  0  0  0  0  0  0  0  0
   29.5940   46.8659   47.1075 C   0  0  0  0  0  0  0  0  0  0  0  0
   29.5828   45.6752   46.4007 C   0  0  0  0  0  0  0  0  0  0  0  0
   29.3904   44.1525   47.2310 Cl  0  0  0  0  0  0  0  0  0  0  0  0
   29.7235   45.6816   45.0351 C   0  0  0  0  0  0  0  0  0  0  0  0
   29.8753   46.8970   44.3908 C   0  0  0  0  0  0  0  0  0  0  0  0
   29.8834   48.0710   45.1165 C   0  0  0  0  0  0  0  0  0  0  0  0
  1  2  2  3
  2  3  1  0
  2  4  1  0
  7  4  1  6
  4  5  1  0
  4  8  1  6
  5  6  1  1
  6  7  1  1
  8 14  1  0
  8  9  2  0
  9 10  1  0
 10 11  1  0
 10 12  2  0
 12 13  1  0
 13 14  2  0
M  CHG  1   1   1
M  END
$$$$
