
     RDKit          3D

 14 15  0  0  0  0  0  0  0  0999 V2000
   29.2432   40.7323   69.2940 N   0  0  0  0  0  4  0  0  0  0  0  0
   28.5197   39.9923   68.5448 C   0  0  0  0  0  0  0  0  0  0  0  0
   27.8446   38.8596   69.1200 N   0  0  0  0  0  0  0  0  0  0  0  0
   28.3648   40.2580   67.1005 C   0  0  2  0  0  0  0  0  0  0  0  0
   29.4411   39.6768   66.2031 C   0  0  0  0  0  0  0  0  0  0  0  0
   29.4874   41.0238   65.4599 C   0  0  0  0  0  0  0  0  0  0  0  0
   28.9055   41.6318   66.7444 C   0  0  0  0  0  0  0  0  0  0  0  0
   26.9884   39.9787   66.6479 C   0  0  0  0  0  0  0  0  0  0  0  0
   26.5596   40.0910   65.3581 C   0  0  0  0  0  0  0  0  0  0  0  0
   25.2549   39.8213   64.9805 C   0  0  0  0  0  0  0  0  0  0  0  0
   24.7622   39.9823   63.3143 Cl  0  0  0  0  0  0  0  0  0  0  0  0
   24.3334   39.4234   65.9172 C   0  0  0  0  0  0  0  0  0  0  0  0
   24.7392   39.3004   67.2346 C   0  0  0  0  0  0  0  0  0  0  0  0
   26.0451   39.5747   67.5871 C   0  0  0  0  0  0  0  0  0  0  0  0
  1  2  2  3
  2  3  1  0
  2  4  1  0
  7  4  1  6
  4  5  1  0
  4  8  1  6
  5  6  1  1
  6  7  1  1
  8 14  1  0
  8  9  2  0
  9 10  1  0
 10 11  1  0
 10 12  2  0
 12 13  1  0
 13 14  2  0
M  CHG  1   1   1
M  END
$$$$
