
     RDKit          3D

 14 15  0  0  0  0  0  0  0  0999 V2000
   12.2041   43.9350   63.5566 N   0  0  0  0  0  4  0  0  0  0  0  0
   13.0715   43.0105   63.7160 C   0  0  0  0  0  0  0  0  0  0  0  0
   12.9649   41.8070   62.9350 N   0  0  0  0  0  0  0  0  0  0  0  0
   14.1757   43.1351   64.6886 C   0  0  2  0  0  0  0  0  0  0  0  0
   13.8181   42.8452   66.1340 C   0  0  0  0  0  0  0  0  0  0  0  0
   14.6117   44.1009   66.5365 C   0  0  0  0  0  0  0  0  0  0  0  0
   14.3712   44.5842   65.0989 C   0  0  0  0  0  0  0  0  0  0  0  0
   15.3876   42.4379   64.2169 C   0  0  0  0  0  0  0  0  0  0  0  0
   15.9428   41.3516   64.8268 C   0  0  0  0  0  0  0  0  0  0  0  0
   17.0852   40.7318   64.3490 C   0  0  0  0  0  0  0  0  0  0  0  0
   17.7516   39.3443   65.1711 Cl  0  0  0  0  0  0  0  0  0  0  0  0
   17.7063   41.2048   63.2197 C   0  0  0  0  0  0  0  0  0  0  0  0
   17.1659   42.3059   62.5788 C   0  0  0  0  0  0  0  0  0  0  0  0
   16.0265   42.9072   63.0738 C   0  0  0  0  0  0  0  0  0  0  0  0
  1  2  2  3
  2  3  1  0
  2  4  1  0
  7  4  1  6
  4  5  1  0
  4  8  1  6
  5  6  1  1
  6  7  1  1
  8 14  1  0
  8  9  2  0
  9 10  1  0
 10 11  1  0
 10 12  2  0
 12 13  1  0
 13 14  2  0
M  CHG  1   1   1
M  END
$$$$
