
     RDKit          3D

 43 46  0  0  0  0  0  0  0  0999 V2000
   73.9057   53.4571   15.1339 C   0  0  0  0  0  0  0  0  0  0  0  0
   72.1120   55.7493   15.7169 C   0  0  0  0  0  0  0  0  0  0  0  0
   72.8678   59.1910   18.1554 C   0  0  0  0  0  0  0  0  0  0  0  0
   75.5658   61.6785   18.8784 C   0  0  0  0  0  0  0  0  0  0  0  0
   74.2343   60.6078   20.4946 C   0  0  1  0  0  0  0  0  0  0  0  0
   72.8452   61.2064   20.4065 C   0  0  0  0  0  0  0  0  0  0  0  0
   67.2429   51.5469   13.2880 C   0  0  0  0  0  0  0  0  0  0  0  0
   68.2480   51.0294   14.0740 C   0  0  0  0  0  0  0  0  0  0  0  0
   69.0876   51.8496   14.8293 C   0  0  0  0  0  0  0  0  0  0  0  0
   68.9387   53.2186   14.8152 C   0  0  0  0  0  0  0  0  0  0  0  0
   67.9259   53.7243   14.0217 C   0  0  0  0  0  0  0  0  0  0  0  0
   67.0967   52.9158   13.2756 C   0  0  0  0  0  0  0  0  0  0  0  0
   71.8930   54.1639   13.8924 C   0  0  0  0  0  0  0  0  0  0  0  0
   73.3169   53.7264   13.7363 C   0  0  2  0  0  0  0  0  0  0  0  0
   73.5780   52.5823   12.8469 C   0  0  0  0  0  0  0  0  0  0  0  0
   71.2901   56.9906   15.6613 C   0  0  2  0  0  0  0  0  0  0  0  0
   71.1900   57.7848   16.9137 C   0  0  2  0  0  0  0  0  0  0  0  0
   74.8056   60.3698   19.1072 C   0  0  1  0  0  0  0  0  0  0  0  0
   75.0554   61.7693   20.9915 C   0  0  1  0  0  0  0  0  0  0  0  0
   73.0077   62.4977   21.1782 C   0  0  0  0  0  0  0  0  0  0  0  0
   70.1022   58.7892   16.9028 C   0  0  0  0  0  0  0  0  0  0  0  0
   69.3948   59.1046   18.1245 C   0  0  0  0  0  0  0  0  0  0  0  0
   69.3081   60.4413   18.5327 C   0  0  0  0  0  0  0  0  0  0  0  0
   68.6543   60.8292   19.6804 C   0  0  0  0  0  0  0  0  0  0  0  0
   68.0483   59.9062   20.4889 C   0  0  0  0  0  0  0  0  0  0  0  0
   68.1226   58.5693   20.1010 C   0  0  0  0  0  0  0  0  0  0  0  0
   68.7797   58.1961   18.9509 C   0  0  0  0  0  0  0  0  0  0  0  0
   65.1902   50.1575   13.2918 C   0  0  0  0  0  0  0  0  0  0  0  0
   74.8938   52.6404   12.1246 C   0  0  0  0  0  0  0  0  0  0  0  0
   75.4165   53.3822   15.0413 C   0  0  0  0  0  0  0  0  0  0  0  0
   66.3462   50.6561   12.4812 C   0  0  1  0  0  0  0  0  0  0  0  0
   71.4671   54.6002   15.1453 N   0  0  0  0  0  0  0  0  0  0  0  0
   72.4428   58.5974   16.9433 N   0  0  0  0  0  0  0  0  0  0  0  0
   69.2243   55.6088   16.0143 O   0  0  0  0  0  0  0  0  0  0  0  0
   70.1325   53.6946   17.1660 O   0  0  0  0  0  0  0  0  0  0  0  0
   70.0635   56.8964   15.0413 O   0  0  0  0  0  0  0  0  0  0  0  0
   72.4862   58.7463   19.2733 O   0  0  0  0  0  0  0  0  0  0  0  0
   73.7263   60.2932   18.1853 O   0  0  0  0  0  0  0  0  0  0  0  0
   76.1596   61.8584   20.1377 O   0  0  0  0  0  0  0  0  0  0  0  0
   74.2833   62.9091   20.7854 O   0  0  0  0  0  0  0  0  0  0  0  0
   65.8806   51.3664   11.3948 O   0  0  0  0  0  0  0  0  0  0  0  0
   64.3747   49.2697   12.6201 O   0  0  0  0  0  0  0  0  0  0  0  0
   69.9568   54.3027   15.7629 S   0  0  1  0  0  6  0  0  0  0  0  0
 14  1  1  1
  1 30  1  0
  2 16  1  0
 32  2  1  0
 33  3  1  0
  3 37  2  0
  3 38  1  0
 18  4  1  0
  4 39  1  0
  5  6  1  6
 18  5  1  0
  5 19  1  0
  6 20  1  0
  8  7  2  0
 12  7  1  0
  7 31  1  0
  9  8  1  0
 10  9  2  0
 10 11  1  0
 43 10  1  0
 11 12  2  0
 13 14  1  0
 32 13  1  0
 14 15  1  0
 15 29  1  0
 16 17  1  0
 16 36  1  1
 17 21  1  6
 17 33  1  0
 18 38  1  6
 19 39  1  6
 19 40  1  0
 40 20  1  0
 21 22  1  0
 22 23  2  0
 22 27  1  0
 23 24  1  0
 24 25  2  0
 26 25  1  0
 27 26  2  0
 31 28  1  0
 28 42  1  0
 31 41  1  6
 43 32  1  6
 43 34  2  0
 43 35  2  0
M  END
$$$$
