
     RDKit          3D

 43 46  0  0  0  0  0  0  0  0999 V2000
   74.1763   55.3491   15.5399 C   0  0  0  0  0  0  0  0  0  0  0  0
   70.6778   56.3803   14.7049 C   0  0  0  0  0  0  0  0  0  0  0  0
   72.9232   58.6466   18.1694 C   0  0  0  0  0  0  0  0  0  0  0  0
   75.7268   60.7332   18.9931 C   0  0  0  0  0  0  0  0  0  0  0  0
   73.7586   60.2383   20.1817 C   0  0  1  0  0  0  0  0  0  0  0  0
   72.5880   60.5733   19.2799 C   0  0  0  0  0  0  0  0  0  0  0  0
   67.3875   51.4169   13.4661 C   0  0  0  0  0  0  0  0  0  0  0  0
   67.0539   52.7396   13.2788 C   0  0  0  0  0  0  0  0  0  0  0  0
   67.6012   53.7549   14.0648 C   0  0  0  0  0  0  0  0  0  0  0  0
   68.5031   53.4667   15.0648 C   0  0  0  0  0  0  0  0  0  0  0  0
   68.8286   52.1349   15.2418 C   0  0  0  0  0  0  0  0  0  0  0  0
   68.2891   51.1319   14.4668 C   0  0  0  0  0  0  0  0  0  0  0  0
   71.8761   54.4544   15.5681 C   0  0  0  0  0  0  0  0  0  0  0  0
   73.0057   54.8545   14.6696 C   0  0  2  0  0  0  0  0  0  0  0  0
   73.4823   53.8555   13.6985 C   0  0  0  0  0  0  0  0  0  0  0  0
   71.3592   57.5926   15.2393 C   0  0  2  0  0  0  0  0  0  0  0  0
   71.0404   57.9785   16.6388 C   0  0  2  0  0  0  0  0  0  0  0  0
   74.8574   59.5405   19.3985 C   0  0  1  0  0  0  0  0  0  0  0  0
   74.3584   61.5944   20.4492 C   0  0  1  0  0  0  0  0  0  0  0  0
   72.4854   62.0745   19.4392 C   0  0  0  0  0  0  0  0  0  0  0  0
   69.8030   58.7805   16.7738 C   0  0  0  0  0  0  0  0  0  0  0  0
   69.3958   59.2715   18.0720 C   0  0  0  0  0  0  0  0  0  0  0  0
   68.9733   58.3546   19.0425 C   0  0  0  0  0  0  0  0  0  0  0  0
   68.5697   58.7355   20.3022 C   0  0  0  0  0  0  0  0  0  0  0  0
   68.5636   60.0541   20.6684 C   0  0  0  0  0  0  0  0  0  0  0  0
   68.9807   60.9840   19.7173 C   0  0  0  0  0  0  0  0  0  0  0  0
   69.3815   60.5886   18.4616 C   0  0  0  0  0  0  0  0  0  0  0  0
   65.8026   49.5130   13.3800 C   0  0  0  0  0  0  0  0  0  0  0  0
   73.5918   52.4594   14.2418 C   0  0  0  0  0  0  0  0  0  0  0  0
   74.2797   54.4911   16.7848 C   0  0  0  0  0  0  0  0  0  0  0  0
   66.7938   50.3343   12.6151 C   0  0  1  0  0  0  0  0  0  0  0  0
   70.7311   55.2483   15.5872 N   0  0  0  0  0  0  0  0  0  0  0  0
   72.1341   58.9187   17.0268 N   0  0  0  0  0  0  0  0  0  0  0  0
   68.2847   55.8773   16.2372 O   0  0  0  0  0  0  0  0  0  0  0  0
   69.3878   54.1449   17.5010 O   0  0  0  0  0  0  0  0  0  0  0  0
   71.3901   58.6999   14.4204 O   0  0  0  0  0  0  0  0  0  0  0  0
   72.4295   58.0962   19.1922 O   0  0  0  0  0  0  0  0  0  0  0  0
   74.2817   58.9683   18.2315 O   0  0  0  0  0  0  0  0  0  0  0  0
   75.7268   61.4730   20.1862 O   0  0  0  0  0  0  0  0  0  0  0  0
   73.8295   62.4511   19.4880 O   0  0  0  0  0  0  0  0  0  0  0  0
   66.1757   50.9165   11.5286 O   0  0  0  0  0  0  0  0  0  0  0  0
   65.1400   48.5756   12.6141 O   0  0  0  0  0  0  0  0  0  0  0  0
   69.2410   54.7087   16.0763 S   0  0  1  0  0  6  0  0  0  0  0  0
 14  1  1  1
  1 30  1  0
  2 16  1  0
 32  2  1  0
 33  3  1  0
  3 37  2  0
  3 38  1  0
 18  4  1  0
  4 39  1  0
  5  6  1  6
 18  5  1  0
  5 19  1  0
  6 20  1  0
  8  7  2  0
 12  7  1  0
  7 31  1  0
  9  8  1  0
 10  9  2  0
 10 11  1  0
 43 10  1  0
 11 12  2  0
 13 14  1  0
 32 13  1  0
 14 15  1  0
 15 29  1  0
 16 17  1  0
 16 36  1  6
 17 21  1  6
 17 33  1  0
 18 38  1  6
 19 39  1  6
 19 40  1  0
 40 20  1  0
 21 22  1  0
 22 23  2  0
 22 27  1  0
 23 24  1  0
 24 25  2  0
 26 25  1  0
 27 26  2  0
 31 28  1  0
 28 42  1  0
 31 41  1  6
 43 32  1  6
 43 34  2  0
 43 35  2  0
M  END
$$$$
