
     RDKit          3D

 43 46  0  0  0  0  0  0  0  0999 V2000
   73.0039   54.5791   15.7235 C   0  0  0  0  0  0  0  0  0  0  0  0
   69.9791   56.6762   14.6212 C   0  0  0  0  0  0  0  0  0  0  0  0
   72.5821   58.7388   18.2663 C   0  0  0  0  0  0  0  0  0  0  0  0
   75.5422   60.3966   19.8127 C   0  0  0  0  0  0  0  0  0  0  0  0
   73.3488   61.2237   19.6212 C   0  0  1  0  0  0  0  0  0  0  0  0
   73.0872   61.4785   18.1507 C   0  0  0  0  0  0  0  0  0  0  0  0
   66.7866   51.2697   13.7940 C   0  0  0  0  0  0  0  0  0  0  0  0
   66.3813   52.5855   13.8004 C   0  0  0  0  0  0  0  0  0  0  0  0
   67.1281   53.5825   14.4300 C   0  0  0  0  0  0  0  0  0  0  0  0
   68.3084   53.2824   15.0729 C   0  0  0  0  0  0  0  0  0  0  0  0
   68.7030   51.9576   15.0589 C   0  0  0  0  0  0  0  0  0  0  0  0
   67.9667   50.9727   14.4379 C   0  0  0  0  0  0  0  0  0  0  0  0
   71.2384   54.6959   14.0026 C   0  0  0  0  0  0  0  0  0  0  0  0
   72.7114   54.8381   14.2336 C   0  0  2  0  0  0  0  0  0  0  0  0
   73.6081   54.0277   13.3924 C   0  0  0  0  0  0  0  0  0  0  0  0
   70.9560   57.6885   15.1115 C   0  0  2  0  0  0  0  0  0  0  0  0
   70.8728   58.0592   16.5485 C   0  0  2  0  0  0  0  0  0  0  0  0
   74.0903   59.9121   19.8154 C   0  0  1  0  0  0  0  0  0  0  0  0
   74.4062   62.2478   19.9431 C   0  0  1  0  0  0  0  0  0  0  0  0
   73.7692   62.8118   17.9344 C   0  0  0  0  0  0  0  0  0  0  0  0
   70.0822   59.2838   16.8083 C   0  0  0  0  0  0  0  0  0  0  0  0
   69.6069   59.5697   18.1442 C   0  0  0  0  0  0  0  0  0  0  0  0
   69.7047   60.8780   18.6338 C   0  0  0  0  0  0  0  0  0  0  0  0
   69.2769   61.2369   19.8921 C   0  0  0  0  0  0  0  0  0  0  0  0
   68.7263   60.3115   20.7366 C   0  0  0  0  0  0  0  0  0  0  0  0
   68.6194   59.0026   20.2690 C   0  0  0  0  0  0  0  0  0  0  0  0
   69.0513   58.6582   19.0087 C   0  0  0  0  0  0  0  0  0  0  0  0
   65.1682   50.7676   11.9849 C   0  0  0  0  0  0  0  0  0  0  0  0
   73.0646   53.7069   12.0293 C   0  0  0  0  0  0  0  0  0  0  0  0
   74.4448   54.1392   15.8879 C   0  0  0  0  0  0  0  0  0  0  0  0
   65.9766   50.2069   13.1138 C   0  0  1  0  0  0  0  0  0  0  0  0
   70.3648   55.3193   14.8913 N   0  0  0  0  0  0  0  0  0  0  0  0
   72.2696   58.4356   16.9199 N   0  0  0  0  0  0  0  0  0  0  0  0
   68.4159   55.4818   16.6169 O   0  0  0  0  0  0  0  0  0  0  0  0
   70.1176   53.8114   16.9768 O   0  0  0  0  0  0  0  0  0  0  0  0
   71.1396   58.8059   14.3269 O   0  0  0  0  0  0  0  0  0  0  0  0
   71.7020   58.6964   19.1700 O   0  0  0  0  0  0  0  0  0  0  0  0
   73.8704   59.0993   18.6700 O   0  0  0  0  0  0  0  0  0  0  0  0
   75.4314   61.5560   20.5965 O   0  0  0  0  0  0  0  0  0  0  0  0
   74.9154   62.6797   18.7216 O   0  0  0  0  0  0  0  0  0  0  0  0
   66.8332   49.2376   12.6358 O   0  0  0  0  0  0  0  0  0  0  0  0
   63.9900   50.0898   11.7471 O   0  0  0  0  0  0  0  0  0  0  0  0
   69.3027   54.5023   15.8686 S   0  0  1  0  0  6  0  0  0  0  0  0
 14  1  1  1
  1 30  1  0
  2 16  1  0
 32  2  1  0
 33  3  1  0
  3 37  2  0
  3 38  1  0
 18  4  1  0
  4 39  1  0
  5  6  1  6
 18  5  1  0
  5 19  1  0
  6 20  1  0
  8  7  2  0
 12  7  1  0
  7 31  1  0
  9  8  1  0
 10  9  2  0
 10 11  1  0
 43 10  1  0
 11 12  2  0
 13 14  1  0
 32 13  1  0
 14 15  1  0
 15 29  1  0
 16 17  1  0
 16 36  1  6
 17 21  1  6
 17 33  1  0
 18 38  1  6
 19 39  1  1
 19 40  1  0
 40 20  1  0
 21 22  1  0
 22 23  2  0
 22 27  1  0
 23 24  1  0
 24 25  2  0
 26 25  1  0
 27 26  2  0
 31 28  1  0
 28 42  1  0
 31 41  1  6
 43 32  1  6
 43 34  2  0
 43 35  2  0
M  END
$$$$
