
     RDKit          3D

 43 46  0  0  0  0  0  0  0  0999 V2000
   73.7158   55.3858   15.8869 C   0  0  0  0  0  0  0  0  0  0  0  0
   71.4712   56.8081   14.1821 C   0  0  0  0  0  0  0  0  0  0  0  0
   72.7638   57.8358   18.2744 C   0  0  0  0  0  0  0  0  0  0  0  0
   74.8292   59.9705   18.1629 C   0  0  0  0  0  0  0  0  0  0  0  0
   74.4086   60.3625   20.4435 C   0  0  1  0  0  0  0  0  0  0  0  0
   73.0194   60.9572   20.5526 C   0  0  0  0  0  0  0  0  0  0  0  0
   66.8542   52.3260   13.5292 C   0  0  0  0  0  0  0  0  0  0  0  0
   66.7702   53.6275   13.0878 C   0  0  0  0  0  0  0  0  0  0  0  0
   67.5580   54.6420   13.6340 C   0  0  0  0  0  0  0  0  0  0  0  0
   68.4561   54.3742   14.6431 C   0  0  0  0  0  0  0  0  0  0  0  0
   68.5297   53.0635   15.0765 C   0  0  0  0  0  0  0  0  0  0  0  0
   67.7525   52.0615   14.5384 C   0  0  0  0  0  0  0  0  0  0  0  0
   71.8104   54.4470   14.6299 C   0  0  0  0  0  0  0  0  0  0  0  0
   73.3050   54.5335   14.6714 C   0  0  2  0  0  0  0  0  0  0  0  0
   74.0551   53.2664   14.6636 C   0  0  0  0  0  0  0  0  0  0  0  0
   71.2040   58.0528   14.9560 C   0  0  2  0  0  0  0  0  0  0  0  0
   71.0552   57.9080   16.4278 C   0  0  2  0  0  0  0  0  0  0  0  0
   74.4282   59.2242   19.4377 C   0  0  1  0  0  0  0  0  0  0  0  0
   75.1684   61.4471   19.7246 C   0  0  1  0  0  0  0  0  0  0  0  0
   73.2666   62.4065   20.1949 C   0  0  0  0  0  0  0  0  0  0  0  0
   70.1345   58.8937   17.0385 C   0  0  0  0  0  0  0  0  0  0  0  0
   69.0499   58.4453   17.8839 C   0  0  0  0  0  0  0  0  0  0  0  0
   69.1517   57.1992   18.5147 C   0  0  0  0  0  0  0  0  0  0  0  0
   68.1673   56.6966   19.3353 C   0  0  0  0  0  0  0  0  0  0  0  0
   67.0227   57.4074   19.5750 C   0  0  0  0  0  0  0  0  0  0  0  0
   66.9008   58.6509   18.9568 C   0  0  0  0  0  0  0  0  0  0  0  0
   67.8932   59.1408   18.1389 C   0  0  0  0  0  0  0  0  0  0  0  0
   66.7205   50.5179   11.8389 C   0  0  0  0  0  0  0  0  0  0  0  0
   73.8224   52.3956   15.8652 C   0  0  0  0  0  0  0  0  0  0  0  0
   75.0682   56.0188   15.6279 C   0  0  0  0  0  0  0  0  0  0  0  0
   66.0032   51.2439   12.9346 C   0  0  1  0  0  0  0  0  0  0  0  0
   71.0725   55.6064   14.8602 N   0  0  0  0  0  0  0  0  0  0  0  0
   72.3971   58.2661   16.9772 N   0  0  0  0  0  0  0  0  0  0  0  0
   68.8755   56.9828   15.1451 O   0  0  0  0  0  0  0  0  0  0  0  0
   69.4763   55.4261   16.8860 O   0  0  0  0  0  0  0  0  0  0  0  0
   70.2499   58.9072   14.4486 O   0  0  0  0  0  0  0  0  0  0  0  0
   72.8018   56.6102   18.5731 O   0  0  0  0  0  0  0  0  0  0  0  0
   73.1020   58.7338   19.2902 O   0  0  0  0  0  0  0  0  0  0  0  0
   75.8284   60.8208   18.6623 O   0  0  0  0  0  0  0  0  0  0  0  0
   74.2111   62.2933   19.1722 O   0  0  0  0  0  0  0  0  0  0  0  0
   65.6575   50.3565   13.9319 O   0  0  0  0  0  0  0  0  0  0  0  0
   65.9506   49.5710   11.1948 O   0  0  0  0  0  0  0  0  0  0  0  0
   69.4904   55.6109   15.3580 S   0  0  1  0  0  6  0  0  0  0  0  0
 14  1  1  1
  1 30  1  0
  2 16  1  0
 32  2  1  0
 33  3  1  0
  3 37  2  0
  3 38  1  0
 18  4  1  0
  4 39  1  0
  5  6  1  6
 18  5  1  0
  5 19  1  0
  6 20  1  0
  8  7  2  0
 12  7  1  0
  7 31  1  0
  9  8  1  0
 10  9  2  0
 10 11  1  0
 43 10  1  0
 11 12  2  0
 13 14  1  0
 32 13  1  0
 14 15  1  0
 15 29  1  0
 16 17  1  0
 16 36  1  6
 17 21  1  1
 17 33  1  0
 18 38  1  6
 19 39  1  6
 19 40  1  0
 40 20  1  0
 21 22  1  0
 22 23  2  0
 22 27  1  0
 23 24  1  0
 24 25  2  0
 26 25  1  0
 27 26  2  0
 31 28  1  0
 28 42  1  0
 31 41  1  1
 43 32  1  6
 43 34  2  0
 43 35  2  0
M  END
$$$$
