
     RDKit          3D

 43 46  0  0  0  0  0  0  0  0999 V2000
   73.6624   55.2659   15.0675 C   0  0  0  0  0  0  0  0  0  0  0  0
   70.7009   56.3509   14.3518 C   0  0  0  0  0  0  0  0  0  0  0  0
   73.0942   58.2841   17.9913 C   0  0  0  0  0  0  0  0  0  0  0  0
   75.4430   60.6461   18.2361 C   0  0  0  0  0  0  0  0  0  0  0  0
   73.9804   59.8814   19.9117 C   0  0  1  0  0  0  0  0  0  0  0  0
   72.6138   59.7149   19.2792 C   0  0  0  0  0  0  0  0  0  0  0  0
   66.6115   51.5421   13.6059 C   0  0  0  0  0  0  0  0  0  0  0  0
   67.6174   51.1661   14.4675 C   0  0  0  0  0  0  0  0  0  0  0  0
   68.4276   52.1053   15.1074 C   0  0  0  0  0  0  0  0  0  0  0  0
   68.2473   53.4545   14.8979 C   0  0  0  0  0  0  0  0  0  0  0  0
   67.2340   53.8176   14.0304 C   0  0  0  0  0  0  0  0  0  0  0  0
   66.4339   52.8914   13.3981 C   0  0  0  0  0  0  0  0  0  0  0  0
   71.5688   54.0892   14.4982 C   0  0  0  0  0  0  0  0  0  0  0  0
   72.8833   54.5502   13.9480 C   0  0  2  0  0  0  0  0  0  0  0  0
   73.7371   53.5389   13.3026 C   0  0  0  0  0  0  0  0  0  0  0  0
   71.6192   57.3080   15.0302 C   0  0  2  0  0  0  0  0  0  0  0  0
   71.2245   57.7679   16.3875 C   0  0  2  0  0  0  0  0  0  0  0  0
   75.0678   59.3650   18.9850 C   0  0  1  0  0  0  0  0  0  0  0  0
   74.1831   61.3734   19.8541 C   0  0  1  0  0  0  0  0  0  0  0  0
   72.0959   61.1365   19.2660 C   0  0  0  0  0  0  0  0  0  0  0  0
   70.0498   58.6690   16.3985 C   0  0  0  0  0  0  0  0  0  0  0  0
   69.4310   59.0376   17.6529 C   0  0  0  0  0  0  0  0  0  0  0  0
   68.3775   59.9601   17.6447 C   0  0  0  0  0  0  0  0  0  0  0  0
   67.7329   60.3656   18.7915 C   0  0  0  0  0  0  0  0  0  0  0  0
   68.1014   59.8748   20.0146 C   0  0  0  0  0  0  0  0  0  0  0  0
   69.1484   58.9549   20.0456 C   0  0  0  0  0  0  0  0  0  0  0  0
   69.7837   58.5586   18.8910 C   0  0  0  0  0  0  0  0  0  0  0  0
   65.1757   51.0535   11.6453 C   0  0  0  0  0  0  0  0  0  0  0  0
   73.0287   52.6699   12.3028 C   0  0  0  0  0  0  0  0  0  0  0  0
   73.9950   54.2760   16.1658 C   0  0  0  0  0  0  0  0  0  0  0  0
   65.7466   50.5242   12.9244 C   0  0  1  0  0  0  0  0  0  0  0  0
   70.6690   55.0490   14.9575 N   0  0  0  0  0  0  0  0  0  0  0  0
   72.3575   58.6324   16.8344 N   0  0  0  0  0  0  0  0  0  0  0  0
   68.4062   55.9484   15.8918 O   0  0  0  0  0  0  0  0  0  0  0  0
   69.5342   54.2089   17.1233 O   0  0  0  0  0  0  0  0  0  0  0  0
   72.0905   58.3589   14.2744 O   0  0  0  0  0  0  0  0  0  0  0  0
   72.5264   57.8049   19.0115 O   0  0  0  0  0  0  0  0  0  0  0  0
   74.4796   58.4488   18.0709 O   0  0  0  0  0  0  0  0  0  0  0  0
   75.4478   61.5725   19.2908 O   0  0  0  0  0  0  0  0  0  0  0  0
   73.2472   61.8592   18.9454 O   0  0  0  0  0  0  0  0  0  0  0  0
   66.5059   49.4025   12.6658 O   0  0  0  0  0  0  0  0  0  0  0  0
   64.3633   50.1581   10.9800 O   0  0  0  0  0  0  0  0  0  0  0  0
   69.2272   54.6867   15.6926 S   0  0  1  0  0  6  0  0  0  0  0  0
 14  1  1  1
  1 30  1  0
  2 16  1  0
 32  2  1  0
 33  3  1  0
  3 37  2  0
  3 38  1  0
 18  4  1  0
  4 39  1  0
  5  6  1  6
 18  5  1  0
  5 19  1  0
  6 20  1  0
  8  7  2  0
 12  7  1  0
  7 31  1  0
  9  8  1  0
 10  9  2  0
 10 11  1  0
 43 10  1  0
 11 12  2  0
 13 14  1  0
 32 13  1  0
 14 15  1  0
 15 29  1  0
 16 17  1  0
 16 36  1  6
 17 21  1  6
 17 33  1  0
 18 38  1  6
 19 39  1  6
 19 40  1  0
 40 20  1  0
 21 22  1  0
 22 23  2  0
 22 27  1  0
 23 24  1  0
 24 25  2  0
 26 25  1  0
 27 26  2  0
 31 28  1  0
 28 42  1  0
 31 41  1  6
 43 32  1  6
 43 34  2  0
 43 35  2  0
M  END
$$$$
