
     RDKit          3D

 43 46  0  0  0  0  0  0  0  0999 V2000
   70.2973   53.4013   13.0934 C   0  0  0  0  0  0  0  0  0  0  0  0
   71.9539   56.7669   14.9617 C   0  0  0  0  0  0  0  0  0  0  0  0
   73.0843   58.6109   18.1763 C   0  0  0  0  0  0  0  0  0  0  0  0
   75.6156   60.8182   18.5834 C   0  0  0  0  0  0  0  0  0  0  0  0
   73.9527   60.1801   20.1194 C   0  0  1  0  0  0  0  0  0  0  0  0
   72.6348   60.1462   19.3727 C   0  0  0  0  0  0  0  0  0  0  0  0
   73.1315   50.3835   14.0318 C   0  0  0  0  0  0  0  0  0  0  0  0
   72.0714   50.4533   14.9077 C   0  0  0  0  0  0  0  0  0  0  0  0
   71.6923   51.6540   15.5098 C   0  0  0  0  0  0  0  0  0  0  0  0
   72.3715   52.8227   15.2463 C   0  0  0  0  0  0  0  0  0  0  0  0
   73.4336   52.7378   14.3654 C   0  0  0  0  0  0  0  0  0  0  0  0
   73.8089   51.5532   13.7707 C   0  0  0  0  0  0  0  0  0  0  0  0
   69.9848   55.4497   14.4345 C   0  0  0  0  0  0  0  0  0  0  0  0
   69.3889   54.1137   14.1131 C   0  0  2  0  0  0  0  0  0  0  0  0
   69.0936   53.2168   15.2430 C   0  0  0  0  0  0  0  0  0  0  0  0
   71.0548   57.9034   15.3073 C   0  0  2  0  0  0  0  0  0  0  0  0
   71.0440   58.3416   16.7276 C   0  0  2  0  0  0  0  0  0  0  0  0
   75.0623   59.5719   19.2787 C   0  0  1  0  0  0  0  0  0  0  0  0
   74.2960   61.6472   20.1018 C   0  0  1  0  0  0  0  0  0  0  0  0
   72.2529   61.6099   19.3382 C   0  0  0  0  0  0  0  0  0  0  0  0
   70.1423   59.4847   16.9969 C   0  0  0  0  0  0  0  0  0  0  0  0
   69.5808   59.6694   18.3170 C   0  0  0  0  0  0  0  0  0  0  0  0
   68.5772   58.7969   18.7558 C   0  0  0  0  0  0  0  0  0  0  0  0
   67.9892   58.9008   19.9962 C   0  0  0  0  0  0  0  0  0  0  0  0
   68.3676   59.8816   20.8723 C   0  0  0  0  0  0  0  0  0  0  0  0
   69.3655   60.7613   20.4555 C   0  0  0  0  0  0  0  0  0  0  0  0
   69.9445   60.6454   19.2125 C   0  0  0  0  0  0  0  0  0  0  0  0
   72.4437   48.5526   12.5090 C   0  0  0  0  0  0  0  0  0  0  0  0
   67.9882   52.2327   14.9866 C   0  0  0  0  0  0  0  0  0  0  0  0
   69.6653   52.0862   12.6840 C   0  0  0  0  0  0  0  0  0  0  0  0
   73.5295   49.0879   13.3902 C   0  0  1  0  0  0  0  0  0  0  0  0
   71.2902   55.4939   14.9200 N   0  0  0  0  0  0  0  0  0  0  0  0
   72.4140   58.8886   16.9615 N   0  0  0  0  0  0  0  0  0  0  0  0
   70.9852   54.1468   17.1325 O   0  0  0  0  0  0  0  0  0  0  0  0
   73.1841   54.9843   16.6046 O   0  0  0  0  0  0  0  0  0  0  0  0
   69.7756   57.8609   14.7978 O   0  0  0  0  0  0  0  0  0  0  0  0
   72.4524   58.2478   19.2067 O   0  0  0  0  0  0  0  0  0  0  0  0
   74.4715   58.7213   18.3048 O   0  0  0  0  0  0  0  0  0  0  0  0
   75.6166   61.7321   19.6490 O   0  0  0  0  0  0  0  0  0  0  0  0
   73.4888   62.2248   19.1258 O   0  0  0  0  0  0  0  0  0  0  0  0
   74.6717   49.2968   12.6462 O   0  0  0  0  0  0  0  0  0  0  0  0
   72.6288   47.2405   12.1236 O   0  0  0  0  0  0  0  0  0  0  0  0
   71.9265   54.3716   15.9624 S   0  0  1  0  0  6  0  0  0  0  0  0
 14  1  1  6
  1 30  1  0
  2 16  1  0
 32  2  1  0
 33  3  1  0
  3 37  2  0
  3 38  1  0
 18  4  1  0
  4 39  1  0
  5  6  1  6
 18  5  1  0
  5 19  1  0
  6 20  1  0
  8  7  2  0
 12  7  1  0
  7 31  1  0
  9  8  1  0
 10  9  2  0
 10 11  1  0
 43 10  1  0
 11 12  2  0
 13 14  1  0
 32 13  1  0
 14 15  1  0
 15 29  1  0
 16 17  1  0
 16 36  1  1
 17 21  1  6
 17 33  1  0
 18 38  1  6
 19 39  1  6
 19 40  1  0
 40 20  1  0
 21 22  1  0
 22 23  2  0
 22 27  1  0
 23 24  1  0
 24 25  2  0
 26 25  1  0
 27 26  2  0
 31 28  1  0
 28 42  1  0
 31 41  1  6
 43 32  1  6
 43 34  2  0
 43 35  2  0
M  END
$$$$
