
     RDKit          3D

 43 46  0  0  0  0  0  0  0  0999 V2000
   67.7408   56.0295   13.7160 C   0  0  0  0  0  0  0  0  0  0  0  0
   69.6372   56.1391   15.1904 C   0  0  0  0  0  0  0  0  0  0  0  0
   71.7726   59.0938   17.9262 C   0  0  0  0  0  0  0  0  0  0  0  0
   72.6404   59.5102   20.6090 C   0  0  0  0  0  0  0  0  0  0  0  0
   72.7983   61.4978   19.3615 C   0  0  1  0  0  0  0  0  0  0  0  0
   73.1786   61.1154   17.9456 C   0  0  0  0  0  0  0  0  0  0  0  0
   72.5222   49.9482   14.3847 C   0  0  0  0  0  0  0  0  0  0  0  0
   72.9605   50.9130   13.5056 C   0  0  0  0  0  0  0  0  0  0  0  0
   72.6696   52.2653   13.6922 C   0  0  0  0  0  0  0  0  0  0  0  0
   71.9269   52.6864   14.7728 C   0  0  0  0  0  0  0  0  0  0  0  0
   71.4933   51.7071   15.6470 C   0  0  0  0  0  0  0  0  0  0  0  0
   71.7797   50.3721   15.4638 C   0  0  0  0  0  0  0  0  0  0  0  0
   68.9983   53.9819   14.2801 C   0  0  0  0  0  0  0  0  0  0  0  0
   67.6231   54.5326   14.0591 C   0  0  2  0  0  0  0  0  0  0  0  0
   66.7738   53.8503   13.0684 C   0  0  0  0  0  0  0  0  0  0  0  0
   70.1831   56.4024   16.5513 C   0  0  2  0  0  0  0  0  0  0  0  0
   71.5632   56.9493   16.6257 C   0  0  2  0  0  0  0  0  0  0  0  0
   71.7521   60.5442   19.9128 C   0  0  1  0  0  0  0  0  0  0  0  0
   74.0305   61.1172   20.1407 C   0  0  1  0  0  0  0  0  0  0  0  0
   74.6708   60.8961   18.0671 C   0  0  0  0  0  0  0  0  0  0  0  0
   72.6131   55.9141   16.7613 C   0  0  0  0  0  0  0  0  0  0  0  0
   73.9389   56.2808   17.2085 C   0  0  0  0  0  0  0  0  0  0  0  0
   74.7746   56.9948   16.3408 C   0  0  0  0  0  0  0  0  0  0  0  0
   76.0493   57.3837   16.6855 C   0  0  0  0  0  0  0  0  0  0  0  0
   76.5660   57.0831   17.9165 C   0  0  0  0  0  0  0  0  0  0  0  0
   75.7507   56.3726   18.7962 C   0  0  0  0  0  0  0  0  0  0  0  0
   74.4782   55.9903   18.4380 C   0  0  0  0  0  0  0  0  0  0  0  0
   71.8415   47.6103   14.8486 C   0  0  0  0  0  0  0  0  0  0  0  0
   67.4982   52.8610   12.2008 C   0  0  0  0  0  0  0  0  0  0  0  0
   66.3646   56.6639   13.7374 C   0  0  0  0  0  0  0  0  0  0  0  0
   72.8414   48.4982   14.1747 C   0  0  1  0  0  0  0  0  0  0  0  0
   70.0129   54.8618   14.6516 N   0  0  0  0  0  0  0  0  0  0  0  0
   71.6040   57.6888   17.9226 N   0  0  0  0  0  0  0  0  0  0  0  0
   71.8260   54.7270   16.5217 O   0  0  0  0  0  0  0  0  0  0  0  0
   72.5422   55.2466   14.2784 O   0  0  0  0  0  0  0  0  0  0  0  0
   69.9937   55.4195   17.4977 O   0  0  0  0  0  0  0  0  0  0  0  0
   72.5550   59.6631   17.1159 O   0  0  0  0  0  0  0  0  0  0  0  0
   71.0895   59.9246   18.8183 O   0  0  0  0  0  0  0  0  0  0  0  0
   73.5853   60.3486   21.2212 O   0  0  0  0  0  0  0  0  0  0  0  0
   74.7698   60.2755   19.3144 O   0  0  0  0  0  0  0  0  0  0  0  0
   72.8533   48.2409   12.8200 O   0  0  0  0  0  0  0  0  0  0  0  0
   72.0768   46.2624   14.6696 O   0  0  0  0  0  0  0  0  0  0  0  0
   71.5445   54.3821   15.0699 S   0  0  1  0  0  6  0  0  0  0  0  0
 14  1  1  6
  1 30  1  0
  2 16  1  0
 32  2  1  0
 33  3  1  0
  3 37  2  0
  3 38  1  0
 18  4  1  0
  4 39  1  0
  5  6  1  6
 18  5  1  0
  5 19  1  0
  6 20  1  0
  8  7  2  0
 12  7  1  0
  7 31  1  0
  9  8  1  0
 10  9  2  0
 10 11  1  0
 43 10  1  0
 11 12  2  0
 13 14  1  0
 32 13  1  0
 14 15  1  0
 15 29  1  0
 16 17  1  0
 16 36  1  1
 17 21  1  1
 17 33  1  0
 18 38  1  6
 19 39  1  1
 19 40  1  0
 40 20  1  0
 21 22  1  0
 22 23  2  0
 22 27  1  0
 23 24  1  0
 24 25  2  0
 26 25  1  0
 27 26  2  0
 31 28  1  0
 28 42  1  0
 31 41  1  6
 43 32  1  6
 43 34  2  0
 43 35  2  0
M  END
$$$$
