
     RDKit          3D

 43 46  0  0  0  0  0  0  0  0999 V2000
   66.9647   57.1054   15.1728 C   0  0  0  0  0  0  0  0  0  0  0  0
   70.3484   56.7757   15.2716 C   0  0  0  0  0  0  0  0  0  0  0  0
   73.9815   58.6766   18.0882 C   0  0  0  0  0  0  0  0  0  0  0  0
   75.5036   60.6641   20.6032 C   0  0  0  0  0  0  0  0  0  0  0  0
   74.3017   61.2648   18.6727 C   0  0  1  0  0  0  0  0  0  0  0  0
   74.9298   60.5356   17.5025 C   0  0  0  0  0  0  0  0  0  0  0  0
   67.1121   51.4650   12.8104 C   0  0  0  0  0  0  0  0  0  0  0  0
   68.1281   52.0867   12.1198 C   0  0  0  0  0  0  0  0  0  0  0  0
   69.0415   52.9293   12.7553 C   0  0  0  0  0  0  0  0  0  0  0  0
   68.9582   53.1706   14.1086 C   0  0  0  0  0  0  0  0  0  0  0  0
   67.9333   52.5401   14.7892 C   0  0  0  0  0  0  0  0  0  0  0  0
   67.0310   51.7084   14.1630 C   0  0  0  0  0  0  0  0  0  0  0  0
   68.5335   55.7620   16.5242 C   0  0  0  0  0  0  0  0  0  0  0  0
   67.6506   56.9717   16.5454 C   0  0  2  0  0  0  0  0  0  0  0  0
   66.6506   57.0587   17.6228 C   0  0  0  0  0  0  0  0  0  0  0  0
   70.8871   57.3973   16.5137 C   0  0  2  0  0  0  0  0  0  0  0  0
   72.3588   57.3326   16.7118 C   0  0  2  0  0  0  0  0  0  0  0  0
   74.1920   60.3490   19.8799 C   0  0  1  0  0  0  0  0  0  0  0  0
   75.3944   62.2175   19.0835 C   0  0  1  0  0  0  0  0  0  0  0  0
   76.1358   61.3987   17.2024 C   0  0  0  0  0  0  0  0  0  0  0  0
   72.8078   56.1642   17.5027 C   0  0  0  0  0  0  0  0  0  0  0  0
   73.5007   55.0729   16.8537 C   0  0  0  0  0  0  0  0  0  0  0  0
   73.8295   55.1888   15.4974 C   0  0  0  0  0  0  0  0  0  0  0  0
   74.4881   54.1993   14.8029 C   0  0  0  0  0  0  0  0  0  0  0  0
   74.8575   53.0354   15.4206 C   0  0  0  0  0  0  0  0  0  0  0  0
   74.5398   52.8992   16.7711 C   0  0  0  0  0  0  0  0  0  0  0  0
   73.8811   53.8968   17.4526 C   0  0  0  0  0  0  0  0  0  0  0  0
   66.0921   49.2065   12.7541 C   0  0  0  0  0  0  0  0  0  0  0  0
   65.5046   57.9869   17.3375 C   0  0  0  0  0  0  0  0  0  0  0  0
   66.1221   55.8744   14.9055 C   0  0  0  0  0  0  0  0  0  0  0  0
   66.1367   50.5611   12.1175 C   0  0  1  0  0  0  0  0  0  0  0  0
   69.4849   55.6534   15.5118 N   0  0  0  0  0  0  0  0  0  0  0  0
   72.6723   58.5079   17.5784 N   0  0  0  0  0  0  0  0  0  0  0  0
   70.7300   53.4420   16.1135 O   0  0  0  0  0  0  0  0  0  0  0  0
   71.2711   54.5201   14.0254 O   0  0  0  0  0  0  0  0  0  0  0  0
   70.2219   57.1180   17.6873 O   0  0  0  0  0  0  0  0  0  0  0  0
   74.9961   58.5388   17.3503 O   0  0  0  0  0  0  0  0  0  0  0  0
   74.2251   59.0025   19.4251 O   0  0  0  0  0  0  0  0  0  0  0  0
   75.5484   62.0604   20.4648 O   0  0  0  0  0  0  0  0  0  0  0  0
   76.5620   61.7533   18.4843 O   0  0  0  0  0  0  0  0  0  0  0  0
   64.8862   51.1401   12.1678 O   0  0  0  0  0  0  0  0  0  0  0  0
   64.8818   48.5589   12.6123 O   0  0  0  0  0  0  0  0  0  0  0  0
   70.0944   54.2100   14.9681 S   0  0  1  0  0  6  0  0  0  0  0  0
 14  1  1  6
  1 30  1  0
  2 16  1  0
 32  2  1  0
 33  3  1  0
  3 37  2  0
  3 38  1  0
 18  4  1  0
  4 39  1  0
  5  6  1  6
 18  5  1  0
  5 19  1  0
  6 20  1  0
  8  7  2  0
 12  7  1  0
  7 31  1  0
  9  8  1  0
 10  9  2  0
 10 11  1  0
 43 10  1  0
 11 12  2  0
 13 14  1  0
 32 13  1  0
 14 15  1  0
 15 29  1  0
 16 17  1  0
 16 36  1  1
 17 21  1  1
 17 33  1  0
 18 38  1  6
 19 39  1  1
 19 40  1  0
 40 20  1  0
 21 22  1  0
 22 23  2  0
 22 27  1  0
 23 24  1  0
 24 25  2  0
 26 25  1  0
 27 26  2  0
 31 28  1  0
 28 42  1  0
 31 41  1  1
 43 32  1  1
 43 34  2  0
 43 35  2  0
M  END
$$$$
