
     RDKit          3D

 43 46  0  0  0  0  0  0  0  0999 V2000
   73.8836   54.2351   13.4881 C   0  0  0  0  0  0  0  0  0  0  0  0
   70.4151   56.4811   14.5134 C   0  0  0  0  0  0  0  0  0  0  0  0
   72.7400   58.5791   18.1099 C   0  0  0  0  0  0  0  0  0  0  0  0
   74.3804   60.8024   17.6226 C   0  0  0  0  0  0  0  0  0  0  0  0
   74.2016   60.5067   19.9491 C   0  0  1  0  0  0  0  0  0  0  0  0
   72.7994   60.0098   20.2364 C   0  0  0  0  0  0  0  0  0  0  0  0
   67.6840   51.5386   12.9239 C   0  0  0  0  0  0  0  0  0  0  0  0
   68.5829   51.0867   13.8639 C   0  0  0  0  0  0  0  0  0  0  0  0
   69.1910   51.9509   14.7757 C   0  0  0  0  0  0  0  0  0  0  0  0
   68.9102   53.2992   14.7676 C   0  0  0  0  0  0  0  0  0  0  0  0
   68.0063   53.7389   13.8186 C   0  0  0  0  0  0  0  0  0  0  0  0
   67.4056   52.8869   12.9180 C   0  0  0  0  0  0  0  0  0  0  0  0
   72.1675   54.9176   15.1256 C   0  0  0  0  0  0  0  0  0  0  0  0
   72.4442   53.9932   13.9800 C   0  0  2  0  0  0  0  0  0  0  0  0
   72.2195   52.5552   14.2035 C   0  0  0  0  0  0  0  0  0  0  0  0
   70.9307   57.8008   14.9737 C   0  0  2  0  0  0  0  0  0  0  0  0
   70.9345   58.0445   16.4401 C   0  0  2  0  0  0  0  0  0  0  0  0
   74.7758   59.8158   18.7240 C   0  0  1  0  0  0  0  0  0  0  0  0
   73.9519   61.9058   19.4484 C   0  0  1  0  0  0  0  0  0  0  0  0
   71.9937   61.2895   20.1860 C   0  0  0  0  0  0  0  0  0  0  0  0
   70.2505   59.2943   16.8432 C   0  0  0  0  0  0  0  0  0  0  0  0
   69.7309   59.4354   18.1857 C   0  0  0  0  0  0  0  0  0  0  0  0
   69.0668   58.3518   18.7737 C   0  0  0  0  0  0  0  0  0  0  0  0
   68.5425   58.4001   20.0457 C   0  0  0  0  0  0  0  0  0  0  0  0
   68.6495   59.5327   20.8062 C   0  0  0  0  0  0  0  0  0  0  0  0
   69.3072   60.6237   20.2400 C   0  0  0  0  0  0  0  0  0  0  0  0
   69.8265   60.5609   18.9672 C   0  0  0  0  0  0  0  0  0  0  0  0
   65.5572   50.5146   12.1673 C   0  0  0  0  0  0  0  0  0  0  0  0
   72.4721   52.0950   15.6108 C   0  0  0  0  0  0  0  0  0  0  0  0
   74.7951   53.1566   14.0384 C   0  0  0  0  0  0  0  0  0  0  0  0
   67.0362   50.6008   11.9495 C   0  0  1  0  0  0  0  0  0  0  0  0
   70.8636   55.3731   15.3097 N   0  0  0  0  0  0  0  0  0  0  0  0
   72.3698   58.2838   16.7765 N   0  0  0  0  0  0  0  0  0  0  0  0
   68.5526   55.3101   16.5172 O   0  0  0  0  0  0  0  0  0  0  0  0
   70.1862   53.6345   17.0994 O   0  0  0  0  0  0  0  0  0  0  0  0
   70.4866   58.9132   14.2932 O   0  0  0  0  0  0  0  0  0  0  0  0
   71.8734   58.8430   18.9887 O   0  0  0  0  0  0  0  0  0  0  0  0
   74.0735   58.5955   18.5275 O   0  0  0  0  0  0  0  0  0  0  0  0
   74.6669   62.0240   18.2521 O   0  0  0  0  0  0  0  0  0  0  0  0
   72.5991   61.9691   19.1266 O   0  0  0  0  0  0  0  0  0  0  0  0
   67.2928   51.0474   10.6703 O   0  0  0  0  0  0  0  0  0  0  0  0
   64.9192   49.6143   11.3386 O   0  0  0  0  0  0  0  0  0  0  0  0
   69.6330   54.4350   15.9067 S   0  0  1  0  0  6  0  0  0  0  0  0
 14  1  1  1
  1 30  1  0
  2 16  1  0
 32  2  1  0
 33  3  1  0
  3 37  2  0
  3 38  1  0
 18  4  1  0
  4 39  1  0
  5  6  1  6
 18  5  1  0
  5 19  1  0
  6 20  1  0
  8  7  2  0
 12  7  1  0
  7 31  1  0
  9  8  1  0
 10  9  2  0
 10 11  1  0
 43 10  1  0
 11 12  2  0
 13 14  1  0
 32 13  1  0
 14 15  1  0
 15 29  1  0
 16 17  1  0
 16 36  1  6
 17 21  1  6
 17 33  1  0
 18 38  1  6
 19 39  1  6
 19 40  1  0
 40 20  1  0
 21 22  1  0
 22 23  2  0
 22 27  1  0
 23 24  1  0
 24 25  2  0
 26 25  1  0
 27 26  2  0
 31 28  1  0
 28 42  1  0
 31 41  1  6
 43 32  1  6
 43 34  2  0
 43 35  2  0
M  END
$$$$
