
     RDKit          3D

 43 46  0  0  0  0  0  0  0  0999 V2000
   73.9635   55.1754   15.2130 C   0  0  0  0  0  0  0  0  0  0  0  0
   70.5774   56.0859   14.4566 C   0  0  0  0  0  0  0  0  0  0  0  0
   72.9774   58.2383   18.0985 C   0  0  0  0  0  0  0  0  0  0  0  0
   74.2588   60.9237   19.3951 C   0  0  0  0  0  0  0  0  0  0  0  0
   72.3454   60.7364   20.7500 C   0  0  1  0  0  0  0  0  0  0  0  0
   71.1608   61.2023   19.9282 C   0  0  0  0  0  0  0  0  0  0  0  0
   66.7627   51.4165   13.7773 C   0  0  0  0  0  0  0  0  0  0  0  0
   66.6209   52.7595   13.5090 C   0  0  0  0  0  0  0  0  0  0  0  0
   67.3561   53.7283   14.1939 C   0  0  0  0  0  0  0  0  0  0  0  0
   68.2583   53.3715   15.1713 C   0  0  0  0  0  0  0  0  0  0  0  0
   68.3903   52.0200   15.4303 C   0  0  0  0  0  0  0  0  0  0  0  0
   67.6651   51.0629   14.7551 C   0  0  0  0  0  0  0  0  0  0  0  0
   71.7448   54.0940   15.2046 C   0  0  0  0  0  0  0  0  0  0  0  0
   72.8882   54.5120   14.3321 C   0  0  2  0  0  0  0  0  0  0  0  0
   73.4984   53.4793   13.4780 C   0  0  0  0  0  0  0  0  0  0  0  0
   71.2391   57.3219   14.9607 C   0  0  2  0  0  0  0  0  0  0  0  0
   71.2275   57.5361   16.4315 C   0  0  2  0  0  0  0  0  0  0  0  0
   73.2735   59.8729   19.9127 C   0  0  1  0  0  0  0  0  0  0  0  0
   73.1412   62.0049   20.9170 C   0  0  1  0  0  0  0  0  0  0  0  0
   71.2734   62.7074   20.0358 C   0  0  0  0  0  0  0  0  0  0  0  0
   70.3476   58.6430   16.8706 C   0  0  0  0  0  0  0  0  0  0  0  0
   70.4660   59.1750   18.2104 C   0  0  0  0  0  0  0  0  0  0  0  0
   71.7098   59.6500   18.6445 C   0  0  0  0  0  0  0  0  0  0  0  0
   71.9106   60.1723   19.9023 C   0  0  0  0  0  0  0  0  0  0  0  0
   70.8822   60.2515   20.8016 C   0  0  0  0  0  0  0  0  0  0  0  0
   69.6350   59.7841   20.3899 C   0  0  0  0  0  0  0  0  0  0  0  0
   69.4490   59.2645   19.1293 C   0  0  0  0  0  0  0  0  0  0  0  0
   65.7907   50.7556   11.5949 C   0  0  0  0  0  0  0  0  0  0  0  0
   73.1669   52.0680   13.8712 C   0  0  0  0  0  0  0  0  0  0  0  0
   74.7838   54.1046   15.9038 C   0  0  0  0  0  0  0  0  0  0  0  0
   65.9681   50.3842   13.0346 C   0  0  1  0  0  0  0  0  0  0  0  0
   70.6714   54.9696   15.3554 N   0  0  0  0  0  0  0  0  0  0  0  0
   72.6067   58.0112   16.7519 N   0  0  0  0  0  0  0  0  0  0  0  0
   68.3994   55.7901   16.3390 O   0  0  0  0  0  0  0  0  0  0  0  0
   69.5306   53.9736   17.4509 O   0  0  0  0  0  0  0  0  0  0  0  0
   70.9587   58.4935   14.2926 O   0  0  0  0  0  0  0  0  0  0  0  0
   73.7328   57.4373   18.7155 O   0  0  0  0  0  0  0  0  0  0  0  0
   72.5332   59.3517   18.8168 O   0  0  0  0  0  0  0  0  0  0  0  0
   74.4550   61.6903   20.5547 O   0  0  0  0  0  0  0  0  0  0  0  0
   72.6553   62.8981   19.9664 O   0  0  0  0  0  0  0  0  0  0  0  0
   66.6229   49.1740   13.1255 O   0  0  0  0  0  0  0  0  0  0  0  0
   65.1977   49.7719   10.8301 O   0  0  0  0  0  0  0  0  0  0  0  0
   69.2279   54.5495   16.0558 S   0  0  1  0  0  6  0  0  0  0  0  0
 14  1  1  1
  1 30  1  0
  2 16  1  0
 32  2  1  0
 33  3  1  0
  3 37  2  0
  3 38  1  0
 18  4  1  0
  4 39  1  0
  5  6  1  6
 18  5  1  0
  5 19  1  0
  6 20  1  0
  8  7  2  0
 12  7  1  0
  7 31  1  0
  9  8  1  0
 10  9  2  0
 10 11  1  0
 43 10  1  0
 11 12  2  0
 13 14  1  0
 32 13  1  0
 14 15  1  0
 15 29  1  0
 16 17  1  0
 16 36  1  6
 17 21  1  6
 17 33  1  0
 18 38  1  6
 19 39  1  6
 19 40  1  0
 40 20  1  0
 21 22  1  0
 22 23  2  0
 22 27  1  0
 23 24  1  0
 24 25  2  0
 26 25  1  0
 27 26  2  0
 31 28  1  0
 28 42  1  0
 31 41  1  6
 43 32  1  6
 43 34  2  0
 43 35  2  0
M  END
$$$$
