
     RDKit          3D

 43 46  0  0  0  0  0  0  0  0999 V2000
   74.8376   55.5668   15.5757 C   0  0  0  0  0  0  0  0  0  0  0  0
   70.1135   55.6574   15.8333 C   0  0  0  0  0  0  0  0  0  0  0  0
   72.4944   58.7860   18.4433 C   0  0  0  0  0  0  0  0  0  0  0  0
   74.7943   59.6735   19.8383 C   0  0  0  0  0  0  0  0  0  0  0  0
   74.0135   61.8865   19.6812 C   0  0  1  0  0  0  0  0  0  0  0  0
   73.9441   62.2393   18.2094 C   0  0  0  0  0  0  0  0  0  0  0  0
   66.9804   52.3825   13.0153 C   0  0  0  0  0  0  0  0  0  0  0  0
   68.2417   52.0637   12.5644 C   0  0  0  0  0  0  0  0  0  0  0  0
   69.3794   52.2886   13.3409 C   0  0  0  0  0  0  0  0  0  0  0  0
   69.2796   52.8423   14.5979 C   0  0  0  0  0  0  0  0  0  0  0  0
   68.0075   53.1575   15.0377 C   0  0  0  0  0  0  0  0  0  0  0  0
   66.8838   52.9362   14.2721 C   0  0  0  0  0  0  0  0  0  0  0  0
   72.4221   55.1575   15.2760 C   0  0  0  0  0  0  0  0  0  0  0  0
   73.6611   54.6425   15.9416 C   0  0  2  0  0  0  0  0  0  0  0  0
   73.6099   54.4395   17.3992 C   0  0  0  0  0  0  0  0  0  0  0  0
   70.5648   57.0772   15.8311 C   0  0  2  0  0  0  0  0  0  0  0  0
   70.5915   57.7741   17.1437 C   0  0  2  0  0  0  0  0  0  0  0  0
   73.4952   60.4788   19.9211 C   0  0  1  0  0  0  0  0  0  0  0  0
   75.4953   61.7321   19.9066 C   0  0  1  0  0  0  0  0  0  0  0  0
   75.3872   62.5672   17.8942 C   0  0  0  0  0  0  0  0  0  0  0  0
   69.6343   58.8990   17.2463 C   0  0  0  0  0  0  0  0  0  0  0  0
   68.9986   59.1965   18.5111 C   0  0  0  0  0  0  0  0  0  0  0  0
   69.3082   58.4103   19.6278 C   0  0  0  0  0  0  0  0  0  0  0  0
   68.7501   58.6242   20.8678 C   0  0  0  0  0  0  0  0  0  0  0  0
   67.8496   59.6353   21.0672 C   0  0  0  0  0  0  0  0  0  0  0  0
   67.5271   60.4304   19.9685 C   0  0  0  0  0  0  0  0  0  0  0  0
   68.0930   60.2049   18.7346 C   0  0  0  0  0  0  0  0  0  0  0  0
   65.3228   53.3792   11.4652 C   0  0  0  0  0  0  0  0  0  0  0  0
   73.5666   53.0006   17.8280 C   0  0  0  0  0  0  0  0  0  0  0  0
   76.1286   54.9788   16.1089 C   0  0  0  0  0  0  0  0  0  0  0  0
   65.7649   52.1357   12.1726 C   0  0  1  0  0  0  0  0  0  0  0  0
   71.1864   54.7074   15.7365 N   0  0  0  0  0  0  0  0  0  0  0  0
   71.9344   58.4258   17.1948 N   0  0  0  0  0  0  0  0  0  0  0  0
   70.4219   52.5677   17.0171 O   0  0  0  0  0  0  0  0  0  0  0  0
   71.8540   52.2931   15.0965 O   0  0  0  0  0  0  0  0  0  0  0  0
   70.0414   57.8941   14.8531 O   0  0  0  0  0  0  0  0  0  0  0  0
   72.8762   57.9107   19.2686 O   0  0  0  0  0  0  0  0  0  0  0  0
   72.6560   60.1186   18.8317 O   0  0  0  0  0  0  0  0  0  0  0  0
   75.6638   60.5067   20.5596 O   0  0  0  0  0  0  0  0  0  0  0  0
   76.0707   61.6082   18.6451 O   0  0  0  0  0  0  0  0  0  0  0  0
   66.0602   51.1552   11.2490 O   0  0  0  0  0  0  0  0  0  0  0  0
   64.2436   53.1939   10.6253 O   0  0  0  0  0  0  0  0  0  0  0  0
   70.6792   53.1318   15.6310 S   0  0  1  0  0  6  0  0  0  0  0  0
 14  1  1  1
  1 30  1  0
  2 16  1  0
 32  2  1  0
 33  3  1  0
  3 37  2  0
  3 38  1  0
 18  4  1  0
  4 39  1  0
  5  6  1  6
 18  5  1  0
  5 19  1  0
  6 20  1  0
  8  7  2  0
 12  7  1  0
  7 31  1  0
  9  8  1  0
 10  9  2  0
 10 11  1  0
 43 10  1  0
 11 12  2  0
 13 14  1  0
 32 13  1  0
 14 15  1  0
 15 29  1  0
 16 17  1  0
 16 36  1  6
 17 21  1  6
 17 33  1  0
 18 38  1  6
 19 39  1  1
 19 40  1  0
 40 20  1  0
 21 22  1  0
 22 23  2  0
 22 27  1  0
 23 24  1  0
 24 25  2  0
 26 25  1  0
 27 26  2  0
 31 28  1  0
 28 42  1  0
 31 41  1  6
 43 32  1  1
 43 34  2  0
 43 35  2  0
M  END
$$$$
