
     RDKit          3D

 43 46  0  0  0  0  0  0  0  0999 V2000
   73.6882   53.1028   14.7535 C   0  0  0  0  0  0  0  0  0  0  0  0
   71.8225   56.5303   15.6190 C   0  0  0  0  0  0  0  0  0  0  0  0
   71.4344   59.5682   18.2250 C   0  0  0  0  0  0  0  0  0  0  0  0
   69.6050   61.2167   19.2554 C   0  0  0  0  0  0  0  0  0  0  0  0
   69.1234   59.5063   20.7963 C   0  0  1  0  0  0  0  0  0  0  0  0
   68.9683   58.2196   20.0116 C   0  0  0  0  0  0  0  0  0  0  0  0
   67.1424   52.5125   13.8839 C   0  0  0  0  0  0  0  0  0  0  0  0
   67.9574   51.6917   14.6307 C   0  0  0  0  0  0  0  0  0  0  0  0
   69.0734   52.1833   15.3097 C   0  0  0  0  0  0  0  0  0  0  0  0
   69.4016   53.5197   15.2564 C   0  0  0  0  0  0  0  0  0  0  0  0
   68.5748   54.3319   14.5029 C   0  0  0  0  0  0  0  0  0  0  0  0
   67.4732   53.8478   13.8321 C   0  0  0  0  0  0  0  0  0  0  0  0
   72.1803   54.8587   13.8962 C   0  0  0  0  0  0  0  0  0  0  0  0
   72.7352   53.4974   13.6096 C   0  0  2  0  0  0  0  0  0  0  0  0
   71.7701   52.4143   13.3571 C   0  0  0  0  0  0  0  0  0  0  0  0
   73.1179   56.9503   16.2233 C   0  0  2  0  0  0  0  0  0  0  0  0
   73.1414   58.2690   16.9088 C   0  0  2  0  0  0  0  0  0  0  0  0
   70.3007   60.3137   20.2769 C   0  0  1  0  0  0  0  0  0  0  0  0
   67.9409   60.3144   20.3283 C   0  0  1  0  0  0  0  0  0  0  0  0
   67.5575   58.3422   19.4785 C   0  0  0  0  0  0  0  0  0  0  0  0
   73.9683   58.2931   18.1368 C   0  0  0  0  0  0  0  0  0  0  0  0
   74.6372   59.5119   18.5361 C   0  0  0  0  0  0  0  0  0  0  0  0
   75.6447   59.4464   19.5065 C   0  0  0  0  0  0  0  0  0  0  0  0
   76.3317   60.5563   19.9437 C   0  0  0  0  0  0  0  0  0  0  0  0
   76.0540   61.7975   19.4387 C   0  0  0  0  0  0  0  0  0  0  0  0
   75.0542   61.8854   18.4713 C   0  0  0  0  0  0  0  0  0  0  0  0
   74.3756   60.7672   18.0437 C   0  0  0  0  0  0  0  0  0  0  0  0
   65.3124   50.8407   13.9062 C   0  0  0  0  0  0  0  0  0  0  0  0
   71.5711   52.0810   11.9061 C   0  0  0  0  0  0  0  0  0  0  0  0
   74.7425   52.1492   14.2283 C   0  0  0  0  0  0  0  0  0  0  0  0
   65.9455   51.9734   13.1590 C   0  0  1  0  0  0  0  0  0  0  0  0
   71.7953   55.1562   15.2020 N   0  0  0  0  0  0  0  0  0  0  0  0
   71.7442   58.4608   17.4005 N   0  0  0  0  0  0  0  0  0  0  0  0
   70.3163   54.9524   17.3405 O   0  0  0  0  0  0  0  0  0  0  0  0
   71.6230   53.0382   16.6746 O   0  0  0  0  0  0  0  0  0  0  0  0
   74.2475   56.7776   15.4540 O   0  0  0  0  0  0  0  0  0  0  0  0
   71.3725   60.7385   17.7566 O   0  0  0  0  0  0  0  0  0  0  0  0
   71.1814   59.4321   19.5926 O   0  0  0  0  0  0  0  0  0  0  0  0
   68.4455   61.5673   19.9649 O   0  0  0  0  0  0  0  0  0  0  0  0
   67.4858   59.7012   19.1644 O   0  0  0  0  0  0  0  0  0  0  0  0
   65.0312   52.9931   12.9981 O   0  0  0  0  0  0  0  0  0  0  0  0
   64.8520   49.8220   13.0970 O   0  0  0  0  0  0  0  0  0  0  0  0
   70.7875   54.2004   16.1084 S   0  0  1  0  0  6  0  0  0  0  0  0
 14  1  1  1
  1 30  1  0
  2 16  1  0
 32  2  1  0
 33  3  1  0
  3 37  2  0
  3 38  1  0
 18  4  1  0
  4 39  1  0
  5  6  1  6
 18  5  1  0
  5 19  1  0
  6 20  1  0
  8  7  2  0
 12  7  1  0
  7 31  1  0
  9  8  1  0
 10  9  2  0
 10 11  1  0
 43 10  1  0
 11 12  2  0
 13 14  1  0
 32 13  1  0
 14 15  1  0
 15 29  1  0
 16 17  1  0
 16 36  1  6
 17 21  1  1
 17 33  1  0
 18 38  1  6
 19 39  1  6
 19 40  1  0
 40 20  1  0
 21 22  1  0
 22 23  2  0
 22 27  1  0
 23 24  1  0
 24 25  2  0
 26 25  1  0
 27 26  2  0
 31 28  1  0
 28 42  1  0
 31 41  1  1
 43 32  1  6
 43 34  2  0
 43 35  2  0
M  END
$$$$
