
     RDKit          3D

 43 46  0  0  0  0  0  0  0  0999 V2000
   74.1491   54.6372   15.9632 C   0  0  0  0  0  0  0  0  0  0  0  0
   70.7487   56.5360   14.2221 C   0  0  0  0  0  0  0  0  0  0  0  0
   72.5750   58.8424   17.8309 C   0  0  0  0  0  0  0  0  0  0  0  0
   75.4089   60.8359   19.2351 C   0  0  0  0  0  0  0  0  0  0  0  0
   73.3818   60.3259   20.3133 C   0  0  1  0  0  0  0  0  0  0  0  0
   72.2915   61.1265   19.6309 C   0  0  0  0  0  0  0  0  0  0  0  0
   66.7548   51.9669   13.8161 C   0  0  0  0  0  0  0  0  0  0  0  0
   67.7625   51.5628   14.6627 C   0  0  0  0  0  0  0  0  0  0  0  0
   68.5982   52.4796   15.3024 C   0  0  0  0  0  0  0  0  0  0  0  0
   68.4424   53.8340   15.1077 C   0  0  0  0  0  0  0  0  0  0  0  0
   67.4271   54.2254   14.2550 C   0  0  0  0  0  0  0  0  0  0  0  0
   66.6018   53.3214   13.6230 C   0  0  0  0  0  0  0  0  0  0  0  0
   71.9136   54.5256   14.9230 C   0  0  0  0  0  0  0  0  0  0  0  0
   73.2986   55.0702   14.7543 C   0  0  2  0  0  0  0  0  0  0  0  0
   74.0010   54.7520   13.4998 C   0  0  0  0  0  0  0  0  0  0  0  0
   70.9755   57.8601   14.8663 C   0  0  2  0  0  0  0  0  0  0  0  0
   70.7651   57.9353   16.3358 C   0  0  2  0  0  0  0  0  0  0  0  0
   74.3400   59.7416   19.2894 C   0  0  1  0  0  0  0  0  0  0  0  0
   74.2135   61.4015   20.9629 C   0  0  1  0  0  0  0  0  0  0  0  0
   72.4580   62.4911   20.2632 C   0  0  0  0  0  0  0  0  0  0  0  0
   69.4027   58.3639   16.7265 C   0  0  0  0  0  0  0  0  0  0  0  0
   69.1530   58.8538   18.0643 C   0  0  0  0  0  0  0  0  0  0  0  0
   69.1272   60.2362   18.2871 C   0  0  0  0  0  0  0  0  0  0  0  0
   68.8964   60.7871   19.5274 C   0  0  0  0  0  0  0  0  0  0  0  0
   68.6779   59.9914   20.6191 C   0  0  0  0  0  0  0  0  0  0  0  0
   68.6992   58.6118   20.4196 C   0  0  0  0  0  0  0  0  0  0  0  0
   68.9312   58.0751   19.1739 C   0  0  0  0  0  0  0  0  0  0  0  0
   66.4772   50.4555   11.8712 C   0  0  0  0  0  0  0  0  0  0  0  0
   74.2081   53.2846   13.2551 C   0  0  0  0  0  0  0  0  0  0  0  0
   73.5506   55.2068   17.2337 C   0  0  0  0  0  0  0  0  0  0  0  0
   65.8625   50.9730   13.1347 C   0  0  1  0  0  0  0  0  0  0  0  0
   70.8677   55.4242   15.1236 N   0  0  0  0  0  0  0  0  0  0  0  0
   71.6471   59.0542   16.7839 N   0  0  0  0  0  0  0  0  0  0  0  0
   68.6453   56.2939   16.1757 O   0  0  0  0  0  0  0  0  0  0  0  0
   69.8178   54.5142   17.3039 O   0  0  0  0  0  0  0  0  0  0  0  0
   70.4329   58.9586   14.2366 O   0  0  0  0  0  0  0  0  0  0  0  0
   72.4497   57.8767   18.6338 O   0  0  0  0  0  0  0  0  0  0  0  0
   73.6735   59.6817   18.0352 O   0  0  0  0  0  0  0  0  0  0  0  0
   75.5387   61.1412   20.5991 O   0  0  0  0  0  0  0  0  0  0  0  0
   73.8476   62.5985   20.3538 O   0  0  0  0  0  0  0  0  0  0  0  0
   65.6270   49.9256   14.0002 O   0  0  0  0  0  0  0  0  0  0  0  0
   65.7217   49.4938   11.2319 O   0  0  0  0  0  0  0  0  0  0  0  0
   69.4553   55.0388   15.9030 S   0  0  1  0  0  6  0  0  0  0  0  0
 14  1  1  1
  1 30  1  0
  2 16  1  0
 32  2  1  0
 33  3  1  0
  3 37  2  0
  3 38  1  0
 18  4  1  0
  4 39  1  0
  5  6  1  6
 18  5  1  0
  5 19  1  0
  6 20  1  0
  8  7  2  0
 12  7  1  0
  7 31  1  0
  9  8  1  0
 10  9  2  0
 10 11  1  0
 43 10  1  0
 11 12  2  0
 13 14  1  0
 32 13  1  0
 14 15  1  0
 15 29  1  0
 16 17  1  0
 16 36  1  6
 17 21  1  6
 17 33  1  0
 18 38  1  6
 19 39  1  6
 19 40  1  0
 40 20  1  0
 21 22  1  0
 22 23  2  0
 22 27  1  0
 23 24  1  0
 24 25  2  0
 26 25  1  0
 27 26  2  0
 31 28  1  0
 28 42  1  0
 31 41  1  1
 43 32  1  6
 43 34  2  0
 43 35  2  0
M  END
$$$$
