
     RDKit          3D

 43 46  0  0  0  0  0  0  0  0999 V2000
   65.8327   56.8995   15.0705 C   0  0  0  0  0  0  0  0  0  0  0  0
   69.9048   56.1661   16.2656 C   0  0  0  0  0  0  0  0  0  0  0  0
   73.1618   58.4357   17.7577 C   0  0  0  0  0  0  0  0  0  0  0  0
   75.6678   60.9588   18.8925 C   0  0  0  0  0  0  0  0  0  0  0  0
   73.6131   60.6135   19.9837 C   0  0  1  0  0  0  0  0  0  0  0  0
   72.5324   61.2342   19.1220 C   0  0  0  0  0  0  0  0  0  0  0  0
   67.7290   50.5068   13.4248 C   0  0  0  0  0  0  0  0  0  0  0  0
   67.1251   51.6137   13.9779 C   0  0  0  0  0  0  0  0  0  0  0  0
   67.8566   52.7439   14.3462 C   0  0  0  0  0  0  0  0  0  0  0  0
   69.2212   52.7924   14.1673 C   0  0  0  0  0  0  0  0  0  0  0  0
   69.8141   51.6741   13.6114 C   0  0  0  0  0  0  0  0  0  0  0  0
   69.0933   50.5579   13.2476 C   0  0  0  0  0  0  0  0  0  0  0  0
   68.0066   55.7602   14.8089 C   0  0  0  0  0  0  0  0  0  0  0  0
   67.2447   56.7276   15.6614 C   0  0  2  0  0  0  0  0  0  0  0  0
   67.1595   56.4359   17.1023 C   0  0  0  0  0  0  0  0  0  0  0  0
   71.3887   56.2940   16.2322 C   0  0  2  0  0  0  0  0  0  0  0  0
   71.9395   57.5803   15.7308 C   0  0  2  0  0  0  0  0  0  0  0  0
   74.6209   59.8670   19.1264 C   0  0  1  0  0  0  0  0  0  0  0  0
   74.3972   61.8183   20.4355 C   0  0  1  0  0  0  0  0  0  0  0  0
   72.6465   62.7002   19.4785 C   0  0  0  0  0  0  0  0  0  0  0  0
   73.3416   57.4919   15.2631 C   0  0  0  0  0  0  0  0  0  0  0  0
   74.3077   56.7184   16.0117 C   0  0  0  0  0  0  0  0  0  0  0  0
   73.8508   55.8142   16.9785 C   0  0  0  0  0  0  0  0  0  0  0  0
   74.7006   55.0391   17.7349 C   0  0  0  0  0  0  0  0  0  0  0  0
   76.0568   55.1204   17.5716 C   0  0  0  0  0  0  0  0  0  0  0  0
   76.5334   56.0145   16.6141 C   0  0  0  0  0  0  0  0  0  0  0  0
   75.6719   56.7830   15.8651 C   0  0  0  0  0  0  0  0  0  0  0  0
   65.6791   49.6757   12.3060 C   0  0  0  0  0  0  0  0  0  0  0  0
   68.1612   57.1690   17.9480 C   0  0  0  0  0  0  0  0  0  0  0  0
   65.0772   55.5899   15.1745 C   0  0  0  0  0  0  0  0  0  0  0  0
   66.9330   49.2981   13.0322 C   0  0  1  0  0  0  0  0  0  0  0  0
   69.3505   55.5353   15.1005 N   0  0  0  0  0  0  0  0  0  0  0  0
   72.0077   58.4553   16.9392 N   0  0  0  0  0  0  0  0  0  0  0  0
   71.2334   53.8107   15.6325 O   0  0  0  0  0  0  0  0  0  0  0  0
   71.0248   54.6036   13.3647 O   0  0  0  0  0  0  0  0  0  0  0  0
   72.0931   55.2265   15.7204 O   0  0  0  0  0  0  0  0  0  0  0  0
   73.4848   57.4062   18.4125 O   0  0  0  0  0  0  0  0  0  0  0  0
   74.0030   59.5440   17.8875 O   0  0  0  0  0  0  0  0  0  0  0  0
   75.7403   61.5289   20.1733 O   0  0  0  0  0  0  0  0  0  0  0  0
   74.0292   62.8621   19.5913 O   0  0  0  0  0  0  0  0  0  0  0  0
   67.7147   48.4981   12.2256 O   0  0  0  0  0  0  0  0  0  0  0  0
   64.9114   48.5983   11.9134 O   0  0  0  0  0  0  0  0  0  0  0  0
   70.1941   54.1994   14.5959 S   0  0  1  0  0  6  0  0  0  0  0  0
 14  1  1  6
  1 30  1  0
  2 16  1  0
 32  2  1  0
 33  3  1  0
  3 37  2  0
  3 38  1  0
 18  4  1  0
  4 39  1  0
  5  6  1  6
 18  5  1  0
  5 19  1  0
  6 20  1  0
  8  7  2  0
 12  7  1  0
  7 31  1  0
  9  8  1  0
 10  9  2  0
 10 11  1  0
 43 10  1  0
 11 12  2  0
 13 14  1  0
 32 13  1  0
 14 15  1  0
 15 29  1  0
 16 17  1  0
 16 36  1  6
 17 21  1  1
 17 33  1  0
 18 38  1  6
 19 39  1  6
 19 40  1  0
 40 20  1  0
 21 22  1  0
 22 23  2  0
 22 27  1  0
 23 24  1  0
 24 25  2  0
 26 25  1  0
 27 26  2  0
 31 28  1  0
 28 42  1  0
 31 41  1  6
 43 32  1  1
 43 34  2  0
 43 35  2  0
M  END
$$$$
