
     RDKit          3D

 19 20  0  0  0  0  0  0  0  0999 V2000
  -17.2389   15.6598  133.8897 O   0  0  0  0  0  0  0  0  0  0  0  0
  -18.2328   15.7512  134.6513 C   0  0  0  0  0  0  0  0  0  0  0  0
  -18.0951   15.2802  135.9540 O   0  0  0  0  0  0  0  0  0  0  0  0
  -19.4965   16.3374  134.1805 C   0  0  0  0  0  0  0  0  0  0  0  0
  -20.4872   16.3172  134.9667 N   0  0  0  0  0  0  0  0  0  0  0  0
  -19.5167   16.9140  132.8233 C   0  0  0  0  0  0  0  0  0  0  0  0
  -19.2451   15.8374  131.9459 O   0  0  0  0  0  0  0  0  0  0  0  0
  -20.8463   17.4583  132.5037 C   0  0  0  0  0  0  0  0  0  0  0  0
  -21.0748   18.0094  131.3662 O   0  0  0  0  0  0  0  0  0  0  0  0
  -21.9379   17.3711  133.5057 C   0  0  0  0  0  0  0  0  0  0  0  0
  -21.8080   16.8470  134.6744 C   0  0  0  0  0  0  0  0  0  0  0  0
  -22.8003   16.8500  135.7328 C   0  0  0  0  0  0  0  0  0  0  0  0
  -23.9098   16.0131  135.4471 C   0  0  0  0  0  0  0  0  0  0  0  0
  -24.9038   15.7761  136.3537 C   0  0  0  0  0  0  0  0  0  0  0  0
  -24.7994   16.3868  137.5847 C   0  0  0  0  0  0  0  0  0  0  0  0
  -23.7593   17.1963  137.9089 C   0  0  0  0  0  0  0  0  0  0  0  0
  -22.7472   17.4255  136.9589 C   0  0  0  0  0  0  0  0  0  0  0  0
  -21.6620   18.3257  137.3883 C   0  0  0  0  0  0  0  0  0  0  0  0
  -20.6403   17.7371  138.2942 C   0  0  0  0  0  0  0  0  0  0  0  0
  1  2  2  0
  2  3  1  0
  2  4  1  0
  4  5  2  0
  4  6  1  0
  5 11  1  0
  6  7  1  0
  6  8  1  0
  8  9  2  0
  8 10  1  0
 10 11  2  0
 11 12  1  0
 12 13  2  0
 12 17  1  0
 13 14  1  0
 14 15  2  0
 15 16  1  0
 16 17  2  0
 18 17  1  1
 19 18  1  6
M  END
$$$$
