
     RDKit          3D

 19 20  0  0  0  0  0  0  0  0999 V2000
  -20.4887   20.3868  133.0932 O   0  0  0  0  0  0  0  0  0  0  0  0
  -20.5239   19.6002  134.0710 C   0  0  0  0  0  0  0  0  0  0  0  0
  -20.7302   20.1473  135.3344 O   0  0  0  0  0  0  0  0  0  0  0  0
  -20.3542   18.1515  133.8843 C   0  0  0  0  0  0  0  0  0  0  0  0
  -20.4467   17.4087  134.9039 N   0  0  0  0  0  0  0  0  0  0  0  0
  -20.0933   17.6664  132.5163 C   0  0  0  0  0  0  0  0  0  0  0  0
  -18.8615   18.2476  132.1324 O   0  0  0  0  0  0  0  0  0  0  0  0
  -19.9495   16.2017  132.4970 C   0  0  0  0  0  0  0  0  0  0  0  0
  -19.7198   15.5783  131.3977 O   0  0  0  0  0  0  0  0  0  0  0  0
  -20.0711   15.4333  133.7611 C   0  0  0  0  0  0  0  0  0  0  0  0
  -20.3084   15.9626  134.9104 C   0  0  0  0  0  0  0  0  0  0  0  0
  -20.5617   15.2504  136.1487 C   0  0  0  0  0  0  0  0  0  0  0  0
  -21.9391   15.2095  136.4863 C   0  0  0  0  0  0  0  0  0  0  0  0
  -22.4144   14.4925  137.5475 C   0  0  0  0  0  0  0  0  0  0  0  0
  -21.4983   13.7922  138.3021 C   0  0  0  0  0  0  0  0  0  0  0  0
  -20.1701   13.7977  138.0226 C   0  0  0  0  0  0  0  0  0  0  0  0
  -19.7039   14.5433  136.9243 C   0  0  0  0  0  0  0  0  0  0  0  0
  -18.2478   14.5040  136.6992 C   0  0  0  0  0  0  0  0  0  0  0  0
  -17.7498   13.4208  135.8106 C   0  0  0  0  0  0  0  0  0  0  0  0
  1  2  2  0
  2  3  1  0
  2  4  1  0
  4  5  2  0
  4  6  1  0
  5 11  1  0
  6  7  1  0
  6  8  1  0
  8  9  2  0
  8 10  1  0
 10 11  2  0
 11 12  1  0
 12 13  2  0
 12 17  1  0
 13 14  1  0
 14 15  2  0
 15 16  1  0
 16 17  2  0
 18 17  1  1
 19 18  1  6
M  END
$$$$
