
     RDKit          3D

 19 20  0  0  0  0  0  0  0  0999 V2000
  -17.2265   16.2468  132.1614 O   0  0  0  0  0  0  0  0  0  0  0  0
  -17.6786   15.9728  133.3004 C   0  0  0  0  0  0  0  0  0  0  0  0
  -16.8809   15.2402  134.1501 O   0  0  0  0  0  0  0  0  0  0  0  0
  -19.0297   16.4401  133.6770 C   0  0  0  0  0  0  0  0  0  0  0  0
  -19.5356   16.1821  134.8033 N   0  0  0  0  0  0  0  0  0  0  0  0
  -19.7351   17.2348  132.6438 C   0  0  0  0  0  0  0  0  0  0  0  0
  -18.9657   18.3296  132.2299 O   0  0  0  0  0  0  0  0  0  0  0  0
  -21.0549   17.6350  133.1238 C   0  0  0  0  0  0  0  0  0  0  0  0
  -21.8104   18.3224  132.3648 O   0  0  0  0  0  0  0  0  0  0  0  0
  -21.5420   17.2779  134.4450 C   0  0  0  0  0  0  0  0  0  0  0  0
  -20.8422   16.5837  135.2834 C   0  0  0  0  0  0  0  0  0  0  0  0
  -21.1369   16.2431  136.6651 C   0  0  0  0  0  0  0  0  0  0  0  0
  -21.6492   14.9484  136.9123 C   0  0  0  0  0  0  0  0  0  0  0  0
  -21.8691   14.4737  138.1712 C   0  0  0  0  0  0  0  0  0  0  0  0
  -21.5948   15.2527  139.2797 C   0  0  0  0  0  0  0  0  0  0  0  0
  -21.1024   16.4978  139.0627 C   0  0  0  0  0  0  0  0  0  0  0  0
  -20.8682   17.0075  137.7570 C   0  0  0  0  0  0  0  0  0  0  0  0
  -20.3583   18.3701  137.7221 C   0  0  0  0  0  0  0  0  0  0  0  0
  -18.8523   18.4471  137.7228 C   0  0  0  0  0  0  0  0  0  0  0  0
  1  2  2  0
  2  3  1  0
  2  4  1  0
  4  5  2  0
  4  6  1  0
  5 11  1  0
  6  7  1  0
  6  8  1  0
  8  9  2  0
  8 10  1  0
 10 11  2  0
 11 12  1  0
 12 13  2  0
 12 17  1  0
 13 14  1  0
 14 15  2  0
 15 16  1  0
 16 17  2  0
 17 18  1  0
 18 19  1  0
M  END
$$$$
