
     RDKit          3D

 19 20  0  0  0  0  0  0  0  0999 V2000
  -20.5144   18.8840  131.1351 O   0  0  0  0  0  0  0  0  0  0  0  0
  -21.0642   18.9232  132.2634 C   0  0  0  0  0  0  0  0  0  0  0  0
  -22.0942   19.8179  132.4466 O   0  0  0  0  0  0  0  0  0  0  0  0
  -20.5894   18.0209  133.3340 C   0  0  0  0  0  0  0  0  0  0  0  0
  -21.1525   17.9687  134.4616 N   0  0  0  0  0  0  0  0  0  0  0  0
  -19.4179   17.1838  132.9828 C   0  0  0  0  0  0  0  0  0  0  0  0
  -19.6546   16.4383  131.8208 O   0  0  0  0  0  0  0  0  0  0  0  0
  -19.0379   16.3416  134.1136 C   0  0  0  0  0  0  0  0  0  0  0  0
  -18.0435   15.5561  133.9972 O   0  0  0  0  0  0  0  0  0  0  0  0
  -19.7576   16.3643  135.3753 C   0  0  0  0  0  0  0  0  0  0  0  0
  -20.7806   17.1292  135.5823 C   0  0  0  0  0  0  0  0  0  0  0  0
  -21.6659   17.1876  136.7333 C   0  0  0  0  0  0  0  0  0  0  0  0
  -21.2753   18.0274  137.8020 C   0  0  0  0  0  0  0  0  0  0  0  0
  -22.0663   18.2467  138.8905 C   0  0  0  0  0  0  0  0  0  0  0  0
  -23.3070   17.6464  138.9967 C   0  0  0  0  0  0  0  0  0  0  0  0
  -23.6993   16.8374  137.9810 C   0  0  0  0  0  0  0  0  0  0  0  0
  -22.8863   16.5982  136.8403 C   0  0  0  0  0  0  0  0  0  0  0  0
  -23.4654   15.6855  135.8657 C   0  0  0  0  0  0  0  0  0  0  0  0
  -24.1943   16.3864  134.7470 C   0  0  0  0  0  0  0  0  0  0  0  0
  1  2  2  0
  2  3  1  0
  2  4  1  0
  4  5  2  0
  4  6  1  0
  5 11  1  0
  6  7  1  0
  6  8  1  0
  8  9  2  0
  8 10  1  0
 10 11  2  0
 11 12  1  0
 12 13  2  0
 12 17  1  0
 13 14  1  0
 14 15  2  0
 15 16  1  0
 16 17  2  0
 17 18  1  0
 18 19  1  0
M  END
$$$$
