
     RDKit          3D

 19 20  0  0  0  0  0  0  0  0999 V2000
  -17.6898   15.3905  133.4633 O   0  0  0  0  0  0  0  0  0  0  0  0
  -18.6395   15.4957  134.2781 C   0  0  0  0  0  0  0  0  0  0  0  0
  -18.5095   14.8773  135.5010 O   0  0  0  0  0  0  0  0  0  0  0  0
  -19.8416   16.2671  133.8963 C   0  0  0  0  0  0  0  0  0  0  0  0
  -20.8258   16.3979  134.6744 N   0  0  0  0  0  0  0  0  0  0  0  0
  -19.7998   16.8767  132.5461 C   0  0  0  0  0  0  0  0  0  0  0  0
  -18.6640   17.6805  132.3850 O   0  0  0  0  0  0  0  0  0  0  0  0
  -21.0367   17.6056  132.2792 C   0  0  0  0  0  0  0  0  0  0  0  0
  -21.1832   18.1923  131.1595 O   0  0  0  0  0  0  0  0  0  0  0  0
  -22.1138   17.6892  133.2502 C   0  0  0  0  0  0  0  0  0  0  0  0
  -22.0509   17.1259  134.4135 C   0  0  0  0  0  0  0  0  0  0  0  0
  -22.9829   17.2082  135.5256 C   0  0  0  0  0  0  0  0  0  0  0  0
  -24.3608   17.1369  135.2155 C   0  0  0  0  0  0  0  0  0  0  0  0
  -25.3285   17.1003  136.1750 C   0  0  0  0  0  0  0  0  0  0  0  0
  -24.9970   17.1314  137.5166 C   0  0  0  0  0  0  0  0  0  0  0  0
  -23.6800   17.1995  137.8339 C   0  0  0  0  0  0  0  0  0  0  0  0
  -22.6594   17.2390  136.8457 C   0  0  0  0  0  0  0  0  0  0  0  0
  -21.3074   17.3332  137.3761 C   0  0  0  0  0  0  0  0  0  0  0  0
  -21.0156   18.6538  138.0431 C   0  0  0  0  0  0  0  0  0  0  0  0
  1  2  2  0
  2  3  1  0
  2  4  1  0
  4  5  2  0
  4  6  1  0
  5 11  1  0
  6  7  1  0
  6  8  1  0
  8  9  2  0
  8 10  1  0
 10 11  2  0
 11 12  1  0
 12 13  2  0
 12 17  1  0
 13 14  1  0
 14 15  2  0
 15 16  1  0
 16 17  2  0
 17 18  1  0
 18 19  1  0
M  END
$$$$
