
     RDKit          3D

 19 20  0  0  0  0  0  0  0  0999 V2000
  -17.1692   16.3676  133.5148 O   0  0  0  0  0  0  0  0  0  0  0  0
  -18.1314   16.3817  134.3217 C   0  0  0  0  0  0  0  0  0  0  0  0
  -17.8925   15.9755  135.6150 O   0  0  0  0  0  0  0  0  0  0  0  0
  -19.4625   16.8261  133.8565 C   0  0  0  0  0  0  0  0  0  0  0  0
  -20.4496   16.9079  134.6376 N   0  0  0  0  0  0  0  0  0  0  0  0
  -19.5467   17.1734  132.4182 C   0  0  0  0  0  0  0  0  0  0  0  0
  -18.5900   18.1353  132.0696 O   0  0  0  0  0  0  0  0  0  0  0  0
  -20.9031   17.5913  132.0750 C   0  0  0  0  0  0  0  0  0  0  0  0
  -21.1665   17.9232  130.8750 O   0  0  0  0  0  0  0  0  0  0  0  0
  -21.9713   17.6454  133.0580 C   0  0  0  0  0  0  0  0  0  0  0  0
  -21.7943   17.3283  134.3000 C   0  0  0  0  0  0  0  0  0  0  0  0
  -22.7192   17.4347  135.4160 C   0  0  0  0  0  0  0  0  0  0  0  0
  -23.6260   18.5196  135.3975 C   0  0  0  0  0  0  0  0  0  0  0  0
  -24.6078   18.6720  136.3310 C   0  0  0  0  0  0  0  0  0  0  0  0
  -24.7611   17.7548  137.3536 C   0  0  0  0  0  0  0  0  0  0  0  0
  -23.9006   16.7068  137.3879 C   0  0  0  0  0  0  0  0  0  0  0  0
  -22.8718   16.5340  136.4229 C   0  0  0  0  0  0  0  0  0  0  0  0
  -22.0340   15.3631  136.6352 C   0  0  0  0  0  0  0  0  0  0  0  0
  -22.2538   14.2754  135.6140 C   0  0  0  0  0  0  0  0  0  0  0  0
  1  2  2  0
  2  3  1  0
  2  4  1  0
  4  5  2  0
  4  6  1  0
  5 11  1  0
  6  7  1  0
  6  8  1  0
  8  9  2  0
  8 10  1  0
 10 11  2  0
 11 12  1  0
 12 13  2  0
 12 17  1  0
 13 14  1  0
 14 15  2  0
 15 16  1  0
 16 17  2  0
 17 18  1  0
 18 19  1  0
M  END
$$$$
