
     RDKit          3D

 19 20  0  0  0  0  0  0  0  0999 V2000
  -17.3363   15.7014  133.9225 O   0  0  0  0  0  0  0  0  0  0  0  0
  -18.3409   15.9125  134.6453 C   0  0  0  0  0  0  0  0  0  0  0  0
  -18.3008   15.4534  135.9588 O   0  0  0  0  0  0  0  0  0  0  0  0
  -19.5167   16.6219  134.1196 C   0  0  0  0  0  0  0  0  0  0  0  0
  -20.5442   16.6896  134.8541 N   0  0  0  0  0  0  0  0  0  0  0  0
  -19.4114   17.2107  132.7715 C   0  0  0  0  0  0  0  0  0  0  0  0
  -19.1986   16.1215  131.8936 O   0  0  0  0  0  0  0  0  0  0  0  0
  -20.6645   17.8833  132.3929 C   0  0  0  0  0  0  0  0  0  0  0  0
  -20.7801   18.4647  131.2534 O   0  0  0  0  0  0  0  0  0  0  0  0
  -21.8100   17.8918  133.3369 C   0  0  0  0  0  0  0  0  0  0  0  0
  -21.7915   17.3465  134.5029 C   0  0  0  0  0  0  0  0  0  0  0  0
  -22.8325   17.4348  135.5096 C   0  0  0  0  0  0  0  0  0  0  0  0
  -23.7472   16.3519  135.4494 C   0  0  0  0  0  0  0  0  0  0  0  0
  -24.7358   16.1730  136.3752 C   0  0  0  0  0  0  0  0  0  0  0  0
  -24.8250   17.0953  137.3951 C   0  0  0  0  0  0  0  0  0  0  0  0
  -23.9758   18.1491  137.4991 C   0  0  0  0  0  0  0  0  0  0  0  0
  -22.9652   18.3126  136.5339 C   0  0  0  0  0  0  0  0  0  0  0  0
  -22.0953   19.4886  136.7149 C   0  0  0  0  0  0  0  0  0  0  0  0
  -22.4455   20.6934  135.9172 C   0  0  0  0  0  0  0  0  0  0  0  0
  1  2  2  0
  2  3  1  0
  2  4  1  0
  4  5  2  0
  4  6  1  0
  5 11  1  0
  6  7  1  0
  6  8  1  0
  8  9  2  0
  8 10  1  0
 10 11  2  0
 11 12  1  0
 12 13  2  0
 12 17  1  0
 13 14  1  0
 14 15  2  0
 15 16  1  0
 16 17  2  0
 18 17  1  1
 19 18  1  6
M  END
$$$$
