
     RDKit          3D

 19 20  0  0  0  0  0  0  0  0999 V2000
  -17.2301   15.9409  133.5295 O   0  0  0  0  0  0  0  0  0  0  0  0
  -18.1398   16.1651  134.3657 C   0  0  0  0  0  0  0  0  0  0  0  0
  -17.9061   15.8221  135.6781 O   0  0  0  0  0  0  0  0  0  0  0  0
  -19.4068   16.7782  133.9133 C   0  0  0  0  0  0  0  0  0  0  0  0
  -20.3485   17.0322  134.7132 N   0  0  0  0  0  0  0  0  0  0  0  0
  -19.4828   17.0772  132.4637 C   0  0  0  0  0  0  0  0  0  0  0  0
  -18.4091   17.8766  132.0514 O   0  0  0  0  0  0  0  0  0  0  0  0
  -20.7750   17.6726  132.1348 C   0  0  0  0  0  0  0  0  0  0  0  0
  -21.0235   17.9915  130.9281 O   0  0  0  0  0  0  0  0  0  0  0  0
  -21.7950   17.9188  133.1395 C   0  0  0  0  0  0  0  0  0  0  0  0
  -21.6286   17.6286  134.3895 C   0  0  0  0  0  0  0  0  0  0  0  0
  -22.4953   17.9110  135.5213 C   0  0  0  0  0  0  0  0  0  0  0  0
  -22.7698   19.2707  135.7966 C   0  0  0  0  0  0  0  0  0  0  0  0
  -23.6466   19.6615  136.7646 C   0  0  0  0  0  0  0  0  0  0  0  0
  -24.3170   18.7273  137.5318 C   0  0  0  0  0  0  0  0  0  0  0  0
  -24.0670   17.4176  137.2822 C   0  0  0  0  0  0  0  0  0  0  0  0
  -23.1557   16.9941  136.2774 C   0  0  0  0  0  0  0  0  0  0  0  0
  -23.0015   15.5509  136.1703 C   0  0  0  0  0  0  0  0  0  0  0  0
  -23.4807   14.9927  134.8540 C   0  0  0  0  0  0  0  0  0  0  0  0
  1  2  2  0
  2  3  1  0
  2  4  1  0
  4  5  2  0
  4  6  1  0
  5 11  1  0
  6  7  1  0
  6  8  1  0
  8  9  2  0
  8 10  1  0
 10 11  2  0
 11 12  1  0
 12 13  2  0
 12 17  1  0
 13 14  1  0
 14 15  2  0
 15 16  1  0
 16 17  2  0
 17 18  1  0
 18 19  1  0
M  END
$$$$
