
     RDKit          3D

 19 20  0  0  0  0  0  0  0  0999 V2000
  -21.0688   18.6438  131.4032 O   0  0  0  0  0  0  0  0  0  0  0  0
  -21.2821   18.3374  132.6022 C   0  0  0  0  0  0  0  0  0  0  0  0
  -22.4016   18.8590  133.2101 O   0  0  0  0  0  0  0  0  0  0  0  0
  -20.3356   17.4432  133.3025 C   0  0  0  0  0  0  0  0  0  0  0  0
  -20.5680   17.0004  134.4606 N   0  0  0  0  0  0  0  0  0  0  0  0
  -19.1084   17.1025  132.5446 C   0  0  0  0  0  0  0  0  0  0  0  0
  -19.4181   16.5582  131.2917 O   0  0  0  0  0  0  0  0  0  0  0  0
  -18.2514   16.2226  133.3344 C   0  0  0  0  0  0  0  0  0  0  0  0
  -17.1449   15.8288  132.8444 O   0  0  0  0  0  0  0  0  0  0  0  0
  -18.6165   15.7742  134.6670 C   0  0  0  0  0  0  0  0  0  0  0  0
  -19.7218   16.1224  135.2428 C   0  0  0  0  0  0  0  0  0  0  0  0
  -20.2780   15.6763  136.5092 C   0  0  0  0  0  0  0  0  0  0  0  0
  -21.4043   14.8231  136.4510 C   0  0  0  0  0  0  0  0  0  0  0  0
  -21.9544   14.2563  137.5622 C   0  0  0  0  0  0  0  0  0  0  0  0
  -21.4239   14.4961  138.8159 C   0  0  0  0  0  0  0  0  0  0  0  0
  -20.3429   15.3120  138.8919 C   0  0  0  0  0  0  0  0  0  0  0  0
  -19.7583   15.9108  137.7434 C   0  0  0  0  0  0  0  0  0  0  0  0
  -18.6191   16.7720  138.0240 C   0  0  0  0  0  0  0  0  0  0  0  0
  -17.2923   16.0620  137.9266 C   0  0  0  0  0  0  0  0  0  0  0  0
  1  2  2  0
  2  3  1  0
  2  4  1  0
  4  5  2  0
  4  6  1  0
  5 11  1  0
  6  7  1  0
  6  8  1  0
  8  9  2  0
  8 10  1  0
 10 11  2  0
 11 12  1  0
 12 13  2  0
 12 17  1  0
 13 14  1  0
 14 15  2  0
 15 16  1  0
 16 17  2  0
 17 18  1  0
 18 19  1  0
M  END
$$$$
