
     RDKit          3D

 19 20  0  0  0  0  0  0  0  0999 V2000
  -18.6800   14.6600  135.6283 O   0  0  0  0  0  0  0  0  0  0  0  0
  -18.6637   15.2406  134.5150 C   0  0  0  0  0  0  0  0  0  0  0  0
  -17.5431   15.0937  133.7291 O   0  0  0  0  0  0  0  0  0  0  0  0
  -19.8308   16.0476  134.0998 C   0  0  0  0  0  0  0  0  0  0  0  0
  -20.8186   16.2342  134.8618 N   0  0  0  0  0  0  0  0  0  0  0  0
  -19.7496   16.6229  132.7364 C   0  0  0  0  0  0  0  0  0  0  0  0
  -18.5821   17.3790  132.5713 O   0  0  0  0  0  0  0  0  0  0  0  0
  -20.9544   17.3915  132.4365 C   0  0  0  0  0  0  0  0  0  0  0  0
  -21.0650   17.9566  131.3017 O   0  0  0  0  0  0  0  0  0  0  0  0
  -22.0392   17.5390  133.3914 C   0  0  0  0  0  0  0  0  0  0  0  0
  -22.0119   17.0016  134.5682 C   0  0  0  0  0  0  0  0  0  0  0  0
  -22.9533   17.1456  135.6659 C   0  0  0  0  0  0  0  0  0  0  0  0
  -24.2648   16.6602  135.4551 C   0  0  0  0  0  0  0  0  0  0  0  0
  -25.2087   16.6440  136.4386 C   0  0  0  0  0  0  0  0  0  0  0  0
  -24.9178   17.1098  137.7071 C   0  0  0  0  0  0  0  0  0  0  0  0
  -23.6646   17.5794  137.9287 C   0  0  0  0  0  0  0  0  0  0  0  0
  -22.6697   17.6035  136.9142 C   0  0  0  0  0  0  0  0  0  0  0  0
  -21.3927   18.1623  137.3327 C   0  0  0  0  0  0  0  0  0  0  0  0
  -21.4510   19.6414  137.6208 C   0  0  0  0  0  0  0  0  0  0  0  0
  1  2  2  0
  2  3  1  0
  2  4  1  0
  4  5  2  0
  4  6  1  0
  5 11  1  0
  6  7  1  0
  6  8  1  0
  8  9  2  0
  8 10  1  0
 10 11  2  0
 11 12  1  0
 12 13  2  0
 12 17  1  0
 13 14  1  0
 14 15  2  0
 15 16  1  0
 16 17  2  0
 17 18  1  0
 18 19  1  0
M  END
$$$$
