
     RDKit          3D

 19 20  0  0  0  0  0  0  0  0999 V2000
  -17.2192   15.9565  133.6284 O   0  0  0  0  0  0  0  0  0  0  0  0
  -18.1711   16.0445  134.4426 C   0  0  0  0  0  0  0  0  0  0  0  0
  -17.9393   15.6695  135.7467 O   0  0  0  0  0  0  0  0  0  0  0  0
  -19.4834   16.5390  133.9745 C   0  0  0  0  0  0  0  0  0  0  0  0
  -20.4739   16.6398  134.7492 N   0  0  0  0  0  0  0  0  0  0  0  0
  -19.5446   16.9120  132.5415 C   0  0  0  0  0  0  0  0  0  0  0  0
  -18.5547   17.8482  132.2162 O   0  0  0  0  0  0  0  0  0  0  0  0
  -20.8840   17.3788  132.1947 C   0  0  0  0  0  0  0  0  0  0  0  0
  -21.1267   17.7383  130.9983 O   0  0  0  0  0  0  0  0  0  0  0  0
  -21.9580   17.4513  133.1701 C   0  0  0  0  0  0  0  0  0  0  0  0
  -21.8016   17.1087  134.4081 C   0  0  0  0  0  0  0  0  0  0  0  0
  -22.7318   17.2267  135.5185 C   0  0  0  0  0  0  0  0  0  0  0  0
  -23.2814   18.5065  135.7627 C   0  0  0  0  0  0  0  0  0  0  0  0
  -24.2398   18.7261  136.7071 C   0  0  0  0  0  0  0  0  0  0  0  0
  -24.7239   17.6871  137.4797 C   0  0  0  0  0  0  0  0  0  0  0  0
  -24.2087   16.4516  137.2598 C   0  0  0  0  0  0  0  0  0  0  0  0
  -23.2092   16.2065  136.2798 C   0  0  0  0  0  0  0  0  0  0  0  0
  -22.7639   14.8230  136.2032 C   0  0  0  0  0  0  0  0  0  0  0  0
  -21.4694   14.5683  136.9334 C   0  0  0  0  0  0  0  0  0  0  0  0
  1  2  2  0
  2  3  1  0
  2  4  1  0
  4  5  2  0
  4  6  1  0
  5 11  1  0
  6  7  1  0
  6  8  1  0
  8  9  2  0
  8 10  1  0
 10 11  2  0
 11 12  1  0
 12 13  2  0
 12 17  1  0
 13 14  1  0
 14 15  2  0
 15 16  1  0
 16 17  2  0
 17 18  1  0
 18 19  1  0
M  END
$$$$
