
     RDKit          3D

 19 20  0  0  0  0  0  0  0  0999 V2000
  -17.0948   16.4263  133.6636 O   0  0  0  0  0  0  0  0  0  0  0  0
  -18.1076   16.4410  134.4053 C   0  0  0  0  0  0  0  0  0  0  0  0
  -17.9824   15.9007  135.6821 O   0  0  0  0  0  0  0  0  0  0  0  0
  -19.3801   17.0114  133.9386 C   0  0  0  0  0  0  0  0  0  0  0  0
  -20.3626   16.9968  134.7352 N   0  0  0  0  0  0  0  0  0  0  0  0
  -19.4181   17.5668  132.5730 C   0  0  0  0  0  0  0  0  0  0  0  0
  -19.1480   16.4788  131.7095 O   0  0  0  0  0  0  0  0  0  0  0  0
  -20.7546   18.0973  132.2588 C   0  0  0  0  0  0  0  0  0  0  0  0
  -20.9985   18.6293  131.1154 O   0  0  0  0  0  0  0  0  0  0  0  0
  -21.8353   18.0182  133.2732 C   0  0  0  0  0  0  0  0  0  0  0  0
  -21.6899   17.5131  134.4484 C   0  0  0  0  0  0  0  0  0  0  0  0
  -22.6713   17.5257  135.5168 C   0  0  0  0  0  0  0  0  0  0  0  0
  -23.3113   16.2712  135.6889 C   0  0  0  0  0  0  0  0  0  0  0  0
  -24.1838   16.0258  136.7110 C   0  0  0  0  0  0  0  0  0  0  0  0
  -24.4338   17.0544  137.5933 C   0  0  0  0  0  0  0  0  0  0  0  0
  -23.8485   18.2732  137.4741 C   0  0  0  0  0  0  0  0  0  0  0  0
  -22.9530   18.5025  136.4134 C   0  0  0  0  0  0  0  0  0  0  0  0
  -22.3721   19.8557  136.3510 C   0  0  0  0  0  0  0  0  0  0  0  0
  -21.0170   20.0164  136.9417 C   0  0  0  0  0  0  0  0  0  0  0  0
  1  2  2  0
  2  3  1  0
  2  4  1  0
  4  5  2  0
  4  6  1  0
  5 11  1  0
  6  7  1  0
  6  8  1  0
  8  9  2  0
  8 10  1  0
 10 11  2  0
 11 12  1  0
 12 13  2  0
 12 17  1  0
 13 14  1  0
 14 15  2  0
 15 16  1  0
 16 17  2  0
 18 17  1  1
 19 18  1  6
M  END
$$$$
