
     RDKit          3D

 19 20  0  0  0  0  0  0  0  0999 V2000
  -16.9899   17.0528  133.5805 O   0  0  0  0  0  0  0  0  0  0  0  0
  -17.9590   16.8876  134.3613 C   0  0  0  0  0  0  0  0  0  0  0  0
  -17.6749   16.5855  135.6902 O   0  0  0  0  0  0  0  0  0  0  0  0
  -19.3448   17.0113  133.8855 C   0  0  0  0  0  0  0  0  0  0  0  0
  -20.2762   16.8133  134.7182 N   0  0  0  0  0  0  0  0  0  0  0  0
  -19.5501   17.3642  132.4684 C   0  0  0  0  0  0  0  0  0  0  0  0
  -18.9841   16.3024  131.7236 O   0  0  0  0  0  0  0  0  0  0  0  0
  -20.9848   17.4499  132.1511 C   0  0  0  0  0  0  0  0  0  0  0  0
  -21.3790   17.7486  130.9657 O   0  0  0  0  0  0  0  0  0  0  0  0
  -21.9903   17.1889  133.2114 C   0  0  0  0  0  0  0  0  0  0  0  0
  -21.6978   16.8915  134.4293 C   0  0  0  0  0  0  0  0  0  0  0  0
  -22.6343   16.7525  135.5287 C   0  0  0  0  0  0  0  0  0  0  0  0
  -23.7296   17.6492  135.4331 C   0  0  0  0  0  0  0  0  0  0  0  0
  -24.7877   17.6111  136.2964 C   0  0  0  0  0  0  0  0  0  0  0  0
  -24.7633   16.6553  137.2888 C   0  0  0  0  0  0  0  0  0  0  0  0
  -23.7401   15.7739  137.4247 C   0  0  0  0  0  0  0  0  0  0  0  0
  -22.6613   15.8321  136.5235 C   0  0  0  0  0  0  0  0  0  0  0  0
  -21.5880   14.8475  136.7495 C   0  0  0  0  0  0  0  0  0  0  0  0
  -21.7380   13.5416  136.0546 C   0  0  0  0  0  0  0  0  0  0  0  0
  1  2  2  0
  2  3  1  0
  2  4  1  0
  4  5  2  0
  4  6  1  0
  5 11  1  0
  6  7  1  0
  6  8  1  0
  8  9  2  0
  8 10  1  0
 10 11  2  0
 11 12  1  0
 12 13  2  0
 12 17  1  0
 13 14  1  0
 14 15  2  0
 15 16  1  0
 16 17  2  0
 18 17  1  1
 19 18  1  6
M  END
$$$$
