
     RDKit          3D

 19 20  0  0  0  0  0  0  0  0999 V2000
  -17.1923   16.2971  133.4805 O   0  0  0  0  0  0  0  0  0  0  0  0
  -18.1246   16.3101  134.3217 C   0  0  0  0  0  0  0  0  0  0  0  0
  -17.8266   15.9554  135.6179 O   0  0  0  0  0  0  0  0  0  0  0  0
  -19.4847   16.6989  133.8920 C   0  0  0  0  0  0  0  0  0  0  0  0
  -20.4504   16.7542  134.7017 N   0  0  0  0  0  0  0  0  0  0  0  0
  -19.6249   17.0243  132.4529 C   0  0  0  0  0  0  0  0  0  0  0  0
  -18.7157   18.0164  132.0641 O   0  0  0  0  0  0  0  0  0  0  0  0
  -21.0056   17.3873  132.1462 C   0  0  0  0  0  0  0  0  0  0  0  0
  -21.3170   17.6937  130.9509 O   0  0  0  0  0  0  0  0  0  0  0  0
  -22.0452   17.4145  133.1605 C   0  0  0  0  0  0  0  0  0  0  0  0
  -21.8194   17.1202  134.4002 C   0  0  0  0  0  0  0  0  0  0  0  0
  -22.7137   17.2066  135.5425 C   0  0  0  0  0  0  0  0  0  0  0  0
  -23.5885   18.3167  135.5908 C   0  0  0  0  0  0  0  0  0  0  0  0
  -24.5428   18.4582  136.5540 C   0  0  0  0  0  0  0  0  0  0  0  0
  -24.6985   17.5042  137.5422 C   0  0  0  0  0  0  0  0  0  0  0  0
  -23.8685   16.4317  137.5123 C   0  0  0  0  0  0  0  0  0  0  0  0
  -22.8686   16.2699  136.5156 C   0  0  0  0  0  0  0  0  0  0  0  0
  -22.0607   15.0678  136.6591 C   0  0  0  0  0  0  0  0  0  0  0  0
  -22.2323   14.0909  135.5232 C   0  0  0  0  0  0  0  0  0  0  0  0
  1  2  2  0
  2  3  1  0
  2  4  1  0
  4  5  2  0
  4  6  1  0
  5 11  1  0
  6  7  1  0
  6  8  1  0
  8  9  2  0
  8 10  1  0
 10 11  2  0
 11 12  1  0
 12 13  2  0
 12 17  1  0
 13 14  1  0
 14 15  2  0
 15 16  1  0
 16 17  2  0
 17 18  1  0
 18 19  1  0
M  END
$$$$
