
     RDKit          3D

 19 20  0  0  0  0  0  0  0  0999 V2000
  -21.2943   19.8134  132.1472 O   0  0  0  0  0  0  0  0  0  0  0  0
  -21.4242   19.2526  133.2629 C   0  0  0  0  0  0  0  0  0  0  0  0
  -22.2241   19.8807  134.2135 O   0  0  0  0  0  0  0  0  0  0  0  0
  -20.7542   17.9758  133.5516 C   0  0  0  0  0  0  0  0  0  0  0  0
  -20.8989   17.4795  134.7061 N   0  0  0  0  0  0  0  0  0  0  0  0
  -19.9640   17.3606  132.4691 C   0  0  0  0  0  0  0  0  0  0  0  0
  -18.9269   18.2795  132.1823 O   0  0  0  0  0  0  0  0  0  0  0  0
  -19.3613   16.0935  132.9138 C   0  0  0  0  0  0  0  0  0  0  0  0
  -18.6337   15.3966  132.1172 O   0  0  0  0  0  0  0  0  0  0  0  0
  -19.5954   15.6129  134.2985 C   0  0  0  0  0  0  0  0  0  0  0  0
  -20.3145   16.2324  135.1683 C   0  0  0  0  0  0  0  0  0  0  0  0
  -20.6778   15.7464  136.4861 C   0  0  0  0  0  0  0  0  0  0  0  0
  -22.0819   15.6778  136.6778 C   0  0  0  0  0  0  0  0  0  0  0  0
  -22.6446   15.1397  137.8003 C   0  0  0  0  0  0  0  0  0  0  0  0
  -21.7919   14.6531  138.7673 C   0  0  0  0  0  0  0  0  0  0  0  0
  -20.4418   14.6944  138.6339 C   0  0  0  0  0  0  0  0  0  0  0  0
  -19.8851   15.2531  137.4688 C   0  0  0  0  0  0  0  0  0  0  0  0
  -18.4124   15.2690  137.4105 C   0  0  0  0  0  0  0  0  0  0  0  0
  -17.7571   16.5675  137.7192 C   0  0  0  0  0  0  0  0  0  0  0  0
  1  2  2  0
  2  3  1  0
  2  4  1  0
  4  5  2  0
  4  6  1  0
  5 11  1  0
  6  7  1  0
  6  8  1  0
  8  9  2  0
  8 10  1  0
 10 11  2  0
 11 12  1  0
 12 13  2  0
 12 17  1  0
 13 14  1  0
 14 15  2  0
 15 16  1  0
 16 17  2  0
 18 17  1  1
 19 18  1  6
M  END
$$$$
