
     RDKit          3D

 19 20  0  0  0  0  0  0  0  0999 V2000
  -16.8766   18.1195  133.9744 O   0  0  0  0  0  0  0  0  0  0  0  0
  -17.7942   17.7038  134.7236 C   0  0  0  0  0  0  0  0  0  0  0  0
  -17.5019   17.5395  136.0747 O   0  0  0  0  0  0  0  0  0  0  0  0
  -19.1308   17.4032  134.1891 C   0  0  0  0  0  0  0  0  0  0  0  0
  -20.0195   17.0158  135.0015 N   0  0  0  0  0  0  0  0  0  0  0  0
  -19.3414   17.5811  132.7403 C   0  0  0  0  0  0  0  0  0  0  0  0
  -18.4640   16.6667  132.1107 O   0  0  0  0  0  0  0  0  0  0  0  0
  -20.7237   17.2422  132.3652 C   0  0  0  0  0  0  0  0  0  0  0  0
  -21.1146   17.3326  131.1450 O   0  0  0  0  0  0  0  0  0  0  0  0
  -21.6797   16.7905  133.4070 C   0  0  0  0  0  0  0  0  0  0  0  0
  -21.3889   16.6754  134.6559 C   0  0  0  0  0  0  0  0  0  0  0  0
  -22.3143   16.3626  135.7285 C   0  0  0  0  0  0  0  0  0  0  0  0
  -23.2081   17.4279  136.0102 C   0  0  0  0  0  0  0  0  0  0  0  0
  -24.2365   17.3077  136.9014 C   0  0  0  0  0  0  0  0  0  0  0  0
  -24.3873   16.0944  137.5371 C   0  0  0  0  0  0  0  0  0  0  0  0
  -23.5604   15.0436  137.3042 C   0  0  0  0  0  0  0  0  0  0  0  0
  -22.5083   15.1909  136.3818 C   0  0  0  0  0  0  0  0  0  0  0  0
  -21.6515   14.0057  136.1976 C   0  0  0  0  0  0  0  0  0  0  0  0
  -21.2387   13.2950  137.4367 C   0  0  0  0  0  0  0  0  0  0  0  0
  1  2  2  0
  2  3  1  0
  2  4  1  0
  4  5  2  0
  4  6  1  0
  5 11  1  0
  6  7  1  0
  6  8  1  0
  8  9  2  0
  8 10  1  0
 10 11  2  0
 11 12  1  0
 12 13  2  0
 12 17  1  0
 13 14  1  0
 14 15  2  0
 15 16  1  0
 16 17  2  0
 18 17  1  1
 19 18  1  6
M  END
$$$$
