
     RDKit          3D

 19 20  0  0  0  0  0  0  0  0999 V2000
  -17.7636   16.0847  135.5835 O   0  0  0  0  0  0  0  0  0  0  0  0
  -17.9621   16.6805  134.4965 C   0  0  0  0  0  0  0  0  0  0  0  0
  -16.8488   17.1328  133.7938 O   0  0  0  0  0  0  0  0  0  0  0  0
  -19.3249   16.8903  133.9854 C   0  0  0  0  0  0  0  0  0  0  0  0
  -20.2897   16.7188  134.7853 N   0  0  0  0  0  0  0  0  0  0  0  0
  -19.4693   17.2925  132.5739 C   0  0  0  0  0  0  0  0  0  0  0  0
  -18.9373   16.2234  131.8148 O   0  0  0  0  0  0  0  0  0  0  0  0
  -20.8875   17.4626  132.2188 C   0  0  0  0  0  0  0  0  0  0  0  0
  -21.2302   17.8144  131.0320 O   0  0  0  0  0  0  0  0  0  0  0  0
  -21.9363   17.2259  133.2422 C   0  0  0  0  0  0  0  0  0  0  0  0
  -21.6961   16.8800  134.4587 C   0  0  0  0  0  0  0  0  0  0  0  0
  -22.6708   16.7603  135.5266 C   0  0  0  0  0  0  0  0  0  0  0  0
  -23.8419   17.5253  135.2889 C   0  0  0  0  0  0  0  0  0  0  0  0
  -24.9349   17.4685  136.1064 C   0  0  0  0  0  0  0  0  0  0  0  0
  -24.8695   16.6282  137.1966 C   0  0  0  0  0  0  0  0  0  0  0  0
  -23.7737   15.8752  137.4697 C   0  0  0  0  0  0  0  0  0  0  0  0
  -22.6600   15.9500  136.6132 C   0  0  0  0  0  0  0  0  0  0  0  0
  -21.5092   15.1092  136.9892 C   0  0  0  0  0  0  0  0  0  0  0  0
  -21.6367   13.6557  136.7029 C   0  0  0  0  0  0  0  0  0  0  0  0
  1  2  2  0
  2  3  1  0
  2  4  1  0
  4  5  2  0
  4  6  1  0
  5 11  1  0
  6  7  1  0
  6  8  1  0
  8  9  2  0
  8 10  1  0
 10 11  2  0
 11 12  1  0
 12 13  2  0
 12 17  1  0
 13 14  1  0
 14 15  2  0
 15 16  1  0
 16 17  2  0
 18 17  1  1
 19 18  1  6
M  END
$$$$
