
     RDKit          3D

 19 20  0  0  0  0  0  0  0  0999 V2000
  -21.1294   18.6396  131.5616 O   0  0  0  0  0  0  0  0  0  0  0  0
  -21.3020   18.3553  132.7724 C   0  0  0  0  0  0  0  0  0  0  0  0
  -22.3759   18.9231  133.4199 O   0  0  0  0  0  0  0  0  0  0  0  0
  -20.3582   17.4368  133.4442 C   0  0  0  0  0  0  0  0  0  0  0  0
  -20.5800   16.9782  134.5982 N   0  0  0  0  0  0  0  0  0  0  0  0
  -19.1469   17.0917  132.6631 C   0  0  0  0  0  0  0  0  0  0  0  0
  -19.4821   16.5724  131.4062 O   0  0  0  0  0  0  0  0  0  0  0  0
  -18.2910   16.1873  133.4259 C   0  0  0  0  0  0  0  0  0  0  0  0
  -17.1972   15.7864  132.9135 O   0  0  0  0  0  0  0  0  0  0  0  0
  -18.6430   15.7221  134.7562 C   0  0  0  0  0  0  0  0  0  0  0  0
  -19.7350   16.0759  135.3537 C   0  0  0  0  0  0  0  0  0  0  0  0
  -20.2791   15.6168  136.6206 C   0  0  0  0  0  0  0  0  0  0  0  0
  -21.3317   14.6741  136.5636 C   0  0  0  0  0  0  0  0  0  0  0  0
  -21.8569   14.0914  137.6787 C   0  0  0  0  0  0  0  0  0  0  0  0
  -21.3729   14.4033  138.9353 C   0  0  0  0  0  0  0  0  0  0  0  0
  -20.3628   15.3056  139.0103 C   0  0  0  0  0  0  0  0  0  0  0  0
  -19.8051   15.9221  137.8577 C   0  0  0  0  0  0  0  0  0  0  0  0
  -18.7448   16.8791  138.1371 C   0  0  0  0  0  0  0  0  0  0  0  0
  -17.3824   16.4119  137.6904 C   0  0  0  0  0  0  0  0  0  0  0  0
  1  2  2  0
  2  3  1  0
  2  4  1  0
  4  5  2  0
  4  6  1  0
  5 11  1  0
  6  7  1  0
  6  8  1  0
  8  9  2  0
  8 10  1  0
 10 11  2  0
 11 12  1  0
 12 13  2  0
 12 17  1  0
 13 14  1  0
 14 15  2  0
 15 16  1  0
 16 17  2  0
 17 18  1  0
 18 19  1  0
M  END
$$$$
