
     RDKit          3D

 19 20  0  0  0  0  0  0  0  0999 V2000
  -20.9355   20.3890  132.8434 O   0  0  0  0  0  0  0  0  0  0  0  0
  -21.2400   19.6747  133.8302 C   0  0  0  0  0  0  0  0  0  0  0  0
  -22.0376   20.2302  134.8050 O   0  0  0  0  0  0  0  0  0  0  0  0
  -20.7361   18.2868  133.9049 C   0  0  0  0  0  0  0  0  0  0  0  0
  -20.8452   17.5923  134.9523 N   0  0  0  0  0  0  0  0  0  0  0  0
  -20.1066   17.7746  132.6648 C   0  0  0  0  0  0  0  0  0  0  0  0
  -20.9697   17.8949  131.5682 O   0  0  0  0  0  0  0  0  0  0  0  0
  -19.6449   16.4029  132.8584 C   0  0  0  0  0  0  0  0  0  0  0  0
  -19.0702   15.7988  131.8970 O   0  0  0  0  0  0  0  0  0  0  0  0
  -19.8191   15.6948  134.1148 C   0  0  0  0  0  0  0  0  0  0  0  0
  -20.3934   16.2292  135.1440 C   0  0  0  0  0  0  0  0  0  0  0  0
  -20.7405   15.6247  136.4192 C   0  0  0  0  0  0  0  0  0  0  0  0
  -19.7433   15.6234  137.4220 C   0  0  0  0  0  0  0  0  0  0  0  0
  -19.9773   15.1795  138.6896 C   0  0  0  0  0  0  0  0  0  0  0  0
  -21.2227   14.7038  139.0547 C   0  0  0  0  0  0  0  0  0  0  0  0
  -22.1924   14.6974  138.1062 C   0  0  0  0  0  0  0  0  0  0  0  0
  -21.9644   15.1560  136.7807 C   0  0  0  0  0  0  0  0  0  0  0  0
  -23.1171   15.0524  135.8983 C   0  0  0  0  0  0  0  0  0  0  0  0
  -23.8845   16.3431  135.7601 C   0  0  0  0  0  0  0  0  0  0  0  0
  1  2  2  0
  2  3  1  0
  2  4  1  0
  4  5  2  0
  4  6  1  0
  5 11  1  0
  6  7  1  0
  6  8  1  0
  8  9  2  0
  8 10  1  0
 10 11  2  0
 11 12  1  0
 12 13  2  0
 12 17  1  0
 13 14  1  0
 14 15  2  0
 15 16  1  0
 16 17  2  0
 17 18  1  0
 18 19  1  0
M  END
$$$$
