
     RDKit          3D

 19 20  0  0  0  0  0  0  0  0999 V2000
  -17.6295   15.3586  133.4907 O   0  0  0  0  0  0  0  0  0  0  0  0
  -18.5846   15.4837  134.2962 C   0  0  0  0  0  0  0  0  0  0  0  0
  -18.4442   14.9352  135.5509 O   0  0  0  0  0  0  0  0  0  0  0  0
  -19.8039   16.2033  133.8705 C   0  0  0  0  0  0  0  0  0  0  0  0
  -20.7784   16.3852  134.6505 N   0  0  0  0  0  0  0  0  0  0  0  0
  -19.7914   16.6979  132.4735 C   0  0  0  0  0  0  0  0  0  0  0  0
  -18.6706   17.5012  132.2275 O   0  0  0  0  0  0  0  0  0  0  0  0
  -21.0431   17.3844  132.1663 C   0  0  0  0  0  0  0  0  0  0  0  0
  -21.2152   17.8730  131.0039 O   0  0  0  0  0  0  0  0  0  0  0  0
  -22.1070   17.5342  133.1440 C   0  0  0  0  0  0  0  0  0  0  0  0
  -22.0183   17.0715  134.3493 C   0  0  0  0  0  0  0  0  0  0  0  0
  -22.9349   17.2338  135.4653 C   0  0  0  0  0  0  0  0  0  0  0  0
  -23.3854   16.0547  136.1031 C   0  0  0  0  0  0  0  0  0  0  0  0
  -24.1642   16.0767  137.2218 C   0  0  0  0  0  0  0  0  0  0  0  0
  -24.5530   17.2751  137.7905 C   0  0  0  0  0  0  0  0  0  0  0  0
  -24.1304   18.4171  137.1928 C   0  0  0  0  0  0  0  0  0  0  0  0
  -23.3189   18.4111  136.0263 C   0  0  0  0  0  0  0  0  0  0  0  0
  -22.9831   19.7322  135.5164 C   0  0  0  0  0  0  0  0  0  0  0  0
  -21.6102   20.2022  135.9266 C   0  0  0  0  0  0  0  0  0  0  0  0
  1  2  2  0
  2  3  1  0
  2  4  1  0
  4  5  2  0
  4  6  1  0
  5 11  1  0
  6  7  1  0
  6  8  1  0
  8  9  2  0
  8 10  1  0
 10 11  2  0
 11 12  1  0
 12 13  2  0
 12 17  1  0
 13 14  1  0
 14 15  2  0
 15 16  1  0
 16 17  2  0
 17 18  1  0
 18 19  1  0
M  END
$$$$
