
     RDKit          3D

 19 20  0  0  0  0  0  0  0  0999 V2000
  -17.1072   16.0659  133.4103 O   0  0  0  0  0  0  0  0  0  0  0  0
  -18.0452   16.1466  134.2413 C   0  0  0  0  0  0  0  0  0  0  0  0
  -17.7975   15.7393  135.5327 O   0  0  0  0  0  0  0  0  0  0  0  0
  -19.3586   16.6668  133.8055 C   0  0  0  0  0  0  0  0  0  0  0  0
  -20.3137   16.8297  134.6132 N   0  0  0  0  0  0  0  0  0  0  0  0
  -19.4648   16.9878  132.3625 C   0  0  0  0  0  0  0  0  0  0  0  0
  -18.4592   17.8775  131.9632 O   0  0  0  0  0  0  0  0  0  0  0  0
  -20.8014   17.4860  132.0498 C   0  0  0  0  0  0  0  0  0  0  0  0
  -21.0799   17.8083  130.8506 O   0  0  0  0  0  0  0  0  0  0  0  0
  -21.8328   17.6308  133.0624 C   0  0  0  0  0  0  0  0  0  0  0  0
  -21.6382   17.3297  134.3058 C   0  0  0  0  0  0  0  0  0  0  0  0
  -22.5192   17.5202  135.4458 C   0  0  0  0  0  0  0  0  0  0  0  0
  -23.0088   18.8282  135.6676 C   0  0  0  0  0  0  0  0  0  0  0  0
  -23.9205   19.1161  136.6395 C   0  0  0  0  0  0  0  0  0  0  0  0
  -24.4140   18.1224  137.4641 C   0  0  0  0  0  0  0  0  0  0  0  0
  -23.9562   16.8610  137.2663 C   0  0  0  0  0  0  0  0  0  0  0  0
  -23.0058   16.5448  136.2583 C   0  0  0  0  0  0  0  0  0  0  0  0
  -22.6180   15.1429  136.2112 C   0  0  0  0  0  0  0  0  0  0  0  0
  -22.9699   14.4667  134.9100 C   0  0  0  0  0  0  0  0  0  0  0  0
  1  2  2  0
  2  3  1  0
  2  4  1  0
  4  5  2  0
  4  6  1  0
  5 11  1  0
  6  7  1  0
  6  8  1  0
  8  9  2  0
  8 10  1  0
 10 11  2  0
 11 12  1  0
 12 13  2  0
 12 17  1  0
 13 14  1  0
 14 15  2  0
 15 16  1  0
 16 17  2  0
 17 18  1  0
 18 19  1  0
M  END
$$$$
