
     RDKit          3D

 19 20  0  0  0  0  0  0  0  0999 V2000
  -21.4750   19.0626  131.4699 O   0  0  0  0  0  0  0  0  0  0  0  0
  -21.7202   18.7337  132.6568 C   0  0  0  0  0  0  0  0  0  0  0  0
  -22.8685   19.2242  133.2362 O   0  0  0  0  0  0  0  0  0  0  0  0
  -20.7792   17.8471  133.3737 C   0  0  0  0  0  0  0  0  0  0  0  0
  -21.0578   17.3470  134.4977 N   0  0  0  0  0  0  0  0  0  0  0  0
  -19.4988   17.5856  132.6746 C   0  0  0  0  0  0  0  0  0  0  0  0
  -19.7159   17.0837  131.3850 O   0  0  0  0  0  0  0  0  0  0  0  0
  -18.6525   16.7061  133.4761 C   0  0  0  0  0  0  0  0  0  0  0  0
  -17.5054   16.3758  133.0351 O   0  0  0  0  0  0  0  0  0  0  0  0
  -19.0730   16.1880  134.7665 C   0  0  0  0  0  0  0  0  0  0  0  0
  -20.2219   16.4692  135.2914 C   0  0  0  0  0  0  0  0  0  0  0  0
  -20.8296   15.9489  136.5046 C   0  0  0  0  0  0  0  0  0  0  0  0
  -21.1138   14.5640  136.5377 C   0  0  0  0  0  0  0  0  0  0  0  0
  -21.5882   13.9382  137.6521 C   0  0  0  0  0  0  0  0  0  0  0  0
  -21.8152   14.6445  138.8184 C   0  0  0  0  0  0  0  0  0  0  0  0
  -21.5482   15.9744  138.8062 C   0  0  0  0  0  0  0  0  0  0  0  0
  -21.0540   16.6415  137.6529 C   0  0  0  0  0  0  0  0  0  0  0  0
  -20.8479   18.0720  137.8235 C   0  0  0  0  0  0  0  0  0  0  0  0
  -22.0826   18.8928  137.5479 C   0  0  0  0  0  0  0  0  0  0  0  0
  1  2  2  0
  2  3  1  0
  2  4  1  0
  4  5  2  0
  4  6  1  0
  5 11  1  0
  6  7  1  0
  6  8  1  0
  8  9  2  0
  8 10  1  0
 10 11  2  0
 11 12  1  0
 12 13  2  0
 12 17  1  0
 13 14  1  0
 14 15  2  0
 15 16  1  0
 16 17  2  0
 17 18  1  0
 18 19  1  0
M  END
$$$$
