
     RDKit          3D

 19 20  0  0  0  0  0  0  0  0999 V2000
  -17.4192   15.9337  133.5002 O   0  0  0  0  0  0  0  0  0  0  0  0
  -18.3713   15.8856  134.3176 C   0  0  0  0  0  0  0  0  0  0  0  0
  -18.1188   15.3732  135.5700 O   0  0  0  0  0  0  0  0  0  0  0  0
  -19.7056   16.3728  133.9075 C   0  0  0  0  0  0  0  0  0  0  0  0
  -20.6785   16.4090  134.7095 N   0  0  0  0  0  0  0  0  0  0  0  0
  -19.8104   16.8194  132.4983 C   0  0  0  0  0  0  0  0  0  0  0  0
  -18.8502   17.7947  132.2002 O   0  0  0  0  0  0  0  0  0  0  0  0
  -21.1682   17.2720  132.2084 C   0  0  0  0  0  0  0  0  0  0  0  0
  -21.4484   17.6883  131.0389 O   0  0  0  0  0  0  0  0  0  0  0  0
  -22.2191   17.2674  133.2113 C   0  0  0  0  0  0  0  0  0  0  0  0
  -22.0245   16.8636  134.4252 C   0  0  0  0  0  0  0  0  0  0  0  0
  -22.9293   16.9006  135.5618 C   0  0  0  0  0  0  0  0  0  0  0  0
  -23.8084   18.0051  135.6473 C   0  0  0  0  0  0  0  0  0  0  0  0
  -24.7718   18.1043  136.6068 C   0  0  0  0  0  0  0  0  0  0  0  0
  -24.9329   17.1104  137.5539 C   0  0  0  0  0  0  0  0  0  0  0  0
  -24.0989   16.0427  137.4880 C   0  0  0  0  0  0  0  0  0  0  0  0
  -23.0896   15.9246  136.4946 C   0  0  0  0  0  0  0  0  0  0  0  0
  -22.2788   14.7203  136.5965 C   0  0  0  0  0  0  0  0  0  0  0  0
  -21.1267   14.8528  137.5603 C   0  0  0  0  0  0  0  0  0  0  0  0
  1  2  2  0
  2  3  1  0
  2  4  1  0
  4  5  2  0
  4  6  1  0
  5 11  1  0
  6  7  1  0
  6  8  1  0
  8  9  2  0
  8 10  1  0
 10 11  2  0
 11 12  1  0
 12 13  2  0
 12 17  1  0
 13 14  1  0
 14 15  2  0
 15 16  1  0
 16 17  2  0
 17 18  1  0
 18 19  1  0
M  END
$$$$
