
     RDKit          3D

 19 20  0  0  0  0  0  0  0  0999 V2000
  -16.9740   18.5092  134.1119 O   0  0  0  0  0  0  0  0  0  0  0  0
  -17.9264   18.1078  134.8246 C   0  0  0  0  0  0  0  0  0  0  0  0
  -17.7566   18.1343  136.2061 O   0  0  0  0  0  0  0  0  0  0  0  0
  -19.1771   17.6285  134.2177 C   0  0  0  0  0  0  0  0  0  0  0  0
  -20.0860   17.2072  134.9900 N   0  0  0  0  0  0  0  0  0  0  0  0
  -19.2846   17.6789  132.7478 C   0  0  0  0  0  0  0  0  0  0  0  0
  -18.2704   16.8211  132.2600 O   0  0  0  0  0  0  0  0  0  0  0  0
  -20.5900   17.1680  132.2989 C   0  0  0  0  0  0  0  0  0  0  0  0
  -20.8861   17.1287  131.0497 O   0  0  0  0  0  0  0  0  0  0  0  0
  -21.5779   16.6920  133.2993 C   0  0  0  0  0  0  0  0  0  0  0  0
  -21.3807   16.6983  134.5715 C   0  0  0  0  0  0  0  0  0  0  0  0
  -22.3549   16.3656  135.5938 C   0  0  0  0  0  0  0  0  0  0  0  0
  -23.4346   17.2848  135.6429 C   0  0  0  0  0  0  0  0  0  0  0  0
  -24.5211   17.0994  136.4499 C   0  0  0  0  0  0  0  0  0  0  0  0
  -24.5424   15.9679  137.2362 C   0  0  0  0  0  0  0  0  0  0  0  0
  -23.5360   15.0572  137.2274 C   0  0  0  0  0  0  0  0  0  0  0  0
  -22.4272   15.2693  136.3878 C   0  0  0  0  0  0  0  0  0  0  0  0
  -21.3752   14.2387  136.4487 C   0  0  0  0  0  0  0  0  0  0  0  0
  -21.4109   13.2002  135.3852 C   0  0  0  0  0  0  0  0  0  0  0  0
  1  2  2  0
  2  3  1  0
  2  4  1  0
  4  5  2  0
  4  6  1  0
  5 11  1  0
  6  7  1  0
  6  8  1  0
  8  9  2  0
  8 10  1  0
 10 11  2  0
 11 12  1  0
 12 13  2  0
 12 17  1  0
 13 14  1  0
 14 15  2  0
 15 16  1  0
 16 17  2  0
 18 17  1  1
 19 18  1  6
M  END
$$$$
