
     RDKit          3D

 19 20  0  0  0  0  0  0  0  0999 V2000
  -21.4913   19.6779  132.3760 O   0  0  0  0  0  0  0  0  0  0  0  0
  -21.5897   19.1048  133.4887 C   0  0  0  0  0  0  0  0  0  0  0  0
  -22.2499   19.7831  134.5096 O   0  0  0  0  0  0  0  0  0  0  0  0
  -21.0273   17.7630  133.7022 C   0  0  0  0  0  0  0  0  0  0  0  0
  -21.1384   17.2512  134.8536 N   0  0  0  0  0  0  0  0  0  0  0  0
  -20.3772   17.1057  132.5532 C   0  0  0  0  0  0  0  0  0  0  0  0
  -19.2789   17.9300  132.2117 O   0  0  0  0  0  0  0  0  0  0  0  0
  -19.8697   15.7757  132.9273 C   0  0  0  0  0  0  0  0  0  0  0  0
  -19.2697   15.0351  132.0663 O   0  0  0  0  0  0  0  0  0  0  0  0
  -20.0522   15.2815  134.3151 C   0  0  0  0  0  0  0  0  0  0  0  0
  -20.6461   15.9423  135.2468 C   0  0  0  0  0  0  0  0  0  0  0  0
  -20.9620   15.4570  136.5771 C   0  0  0  0  0  0  0  0  0  0  0  0
  -19.8045   15.1698  137.3457 C   0  0  0  0  0  0  0  0  0  0  0  0
  -19.8672   14.8126  138.6628 C   0  0  0  0  0  0  0  0  0  0  0  0
  -21.1157   14.7353  139.2409 C   0  0  0  0  0  0  0  0  0  0  0  0
  -22.2543   14.9994  138.5509 C   0  0  0  0  0  0  0  0  0  0  0  0
  -22.1648   15.3658  137.1954 C   0  0  0  0  0  0  0  0  0  0  0  0
  -23.4486   15.6232  136.5187 C   0  0  0  0  0  0  0  0  0  0  0  0
  -23.3670   16.0565  135.0986 C   0  0  0  0  0  0  0  0  0  0  0  0
  1  2  2  0
  2  3  1  0
  2  4  1  0
  4  5  2  0
  4  6  1  0
  5 11  1  0
  6  7  1  0
  6  8  1  0
  8  9  2  0
  8 10  1  0
 10 11  2  0
 11 12  1  0
 12 13  2  0
 12 17  1  0
 13 14  1  0
 14 15  2  0
 15 16  1  0
 16 17  2  0
 18 17  1  1
 19 18  1  6
M  END
$$$$
