
     RDKit          3D

 19 20  0  0  0  0  0  0  0  0999 V2000
  -20.7503   19.9897  132.4876 O   0  0  0  0  0  0  0  0  0  0  0  0
  -21.0213   19.4338  133.5804 C   0  0  0  0  0  0  0  0  0  0  0  0
  -21.7219   20.1610  134.5160 O   0  0  0  0  0  0  0  0  0  0  0  0
  -20.5826   18.0416  133.8153 C   0  0  0  0  0  0  0  0  0  0  0  0
  -20.8551   17.4267  134.8824 N   0  0  0  0  0  0  0  0  0  0  0  0
  -19.8128   17.4256  132.7087 C   0  0  0  0  0  0  0  0  0  0  0  0
  -20.5175   17.4908  131.5000 O   0  0  0  0  0  0  0  0  0  0  0  0
  -19.4310   16.0592  133.0544 C   0  0  0  0  0  0  0  0  0  0  0  0
  -18.7559   15.3729  132.2221 O   0  0  0  0  0  0  0  0  0  0  0  0
  -19.7963   15.4474  134.3203 C   0  0  0  0  0  0  0  0  0  0  0  0
  -20.4825   16.0690  135.2243 C   0  0  0  0  0  0  0  0  0  0  0  0
  -21.0177   15.5665  136.4785 C   0  0  0  0  0  0  0  0  0  0  0  0
  -20.1282   14.8568  137.3180 C   0  0  0  0  0  0  0  0  0  0  0  0
  -20.4800   14.4243  138.5621 C   0  0  0  0  0  0  0  0  0  0  0  0
  -21.7447   14.6665  139.0646 C   0  0  0  0  0  0  0  0  0  0  0  0
  -22.6123   15.3462  138.2738 C   0  0  0  0  0  0  0  0  0  0  0  0
  -22.2612   15.8031  136.9748 C   0  0  0  0  0  0  0  0  0  0  0  0
  -23.3292   16.4939  136.2676 C   0  0  0  0  0  0  0  0  0  0  0  0
  -23.8953   15.7026  135.1155 C   0  0  0  0  0  0  0  0  0  0  0  0
  1  2  2  0
  2  3  1  0
  2  4  1  0
  4  5  2  0
  4  6  1  0
  5 11  1  0
  6  7  1  0
  6  8  1  0
  8  9  2  0
  8 10  1  0
 10 11  2  0
 11 12  1  0
 12 13  2  0
 12 17  1  0
 13 14  1  0
 14 15  2  0
 15 16  1  0
 16 17  2  0
 17 18  1  0
 18 19  1  0
M  END
$$$$
