
     RDKit          3D

 19 20  0  0  0  0  0  0  0  0999 V2000
  -17.5132   15.7480  133.7742 O   0  0  0  0  0  0  0  0  0  0  0  0
  -18.5150   15.8903  134.5173 C   0  0  0  0  0  0  0  0  0  0  0  0
  -18.4294   15.4042  135.8189 O   0  0  0  0  0  0  0  0  0  0  0  0
  -19.7346   16.5495  134.0268 C   0  0  0  0  0  0  0  0  0  0  0  0
  -20.7441   16.5685  134.7886 N   0  0  0  0  0  0  0  0  0  0  0  0
  -19.6911   17.1482  132.6797 C   0  0  0  0  0  0  0  0  0  0  0  0
  -19.4542   16.0733  131.7905 O   0  0  0  0  0  0  0  0  0  0  0  0
  -20.9823   17.7666  132.3381 C   0  0  0  0  0  0  0  0  0  0  0  0
  -21.1537   18.3473  131.2053 O   0  0  0  0  0  0  0  0  0  0  0  0
  -22.1015   17.7204  133.3121 C   0  0  0  0  0  0  0  0  0  0  0  0
  -22.0279   17.1714  134.4742 C   0  0  0  0  0  0  0  0  0  0  0  0
  -23.0446   17.2092  135.5085 C   0  0  0  0  0  0  0  0  0  0  0  0
  -24.0993   16.2894  135.2751 C   0  0  0  0  0  0  0  0  0  0  0  0
  -25.1008   16.0753  136.1792 C   0  0  0  0  0  0  0  0  0  0  0  0
  -25.0603   16.7946  137.3539 C   0  0  0  0  0  0  0  0  0  0  0  0
  -24.0744   17.6867  137.6267 C   0  0  0  0  0  0  0  0  0  0  0  0
  -23.0533   17.8903  136.6805 C   0  0  0  0  0  0  0  0  0  0  0  0
  -22.0299   18.8842  137.0510 C   0  0  0  0  0  0  0  0  0  0  0  0
  -22.4403   19.9093  138.0467 C   0  0  0  0  0  0  0  0  0  0  0  0
  1  2  2  0
  2  3  1  0
  2  4  1  0
  4  5  2  0
  4  6  1  0
  5 11  1  0
  6  7  1  0
  6  8  1  0
  8  9  2  0
  8 10  1  0
 10 11  2  0
 11 12  1  0
 12 13  2  0
 12 17  1  0
 13 14  1  0
 14 15  2  0
 15 16  1  0
 16 17  2  0
 18 17  1  1
 19 18  1  6
M  END
$$$$
