
     RDKit          3D

 19 20  0  0  0  0  0  0  0  0999 V2000
  -17.4268   15.8588  133.7832 O   0  0  0  0  0  0  0  0  0  0  0  0
  -18.4319   15.9134  134.5335 C   0  0  0  0  0  0  0  0  0  0  0  0
  -18.3373   15.3138  135.7863 O   0  0  0  0  0  0  0  0  0  0  0  0
  -19.6642   16.5893  134.1012 C   0  0  0  0  0  0  0  0  0  0  0  0
  -20.6623   16.5531  134.8772 N   0  0  0  0  0  0  0  0  0  0  0  0
  -19.6459   17.2682  132.7921 C   0  0  0  0  0  0  0  0  0  0  0  0
  -19.4131   16.2509  131.8364 O   0  0  0  0  0  0  0  0  0  0  0  0
  -20.9473   17.8938  132.5069 C   0  0  0  0  0  0  0  0  0  0  0  0
  -21.1405   18.5398  131.4136 O   0  0  0  0  0  0  0  0  0  0  0  0
  -22.0514   17.7787  133.4923 C   0  0  0  0  0  0  0  0  0  0  0  0
  -21.9558   17.1616  134.6181 C   0  0  0  0  0  0  0  0  0  0  0  0
  -22.9572   17.1277  135.6673 C   0  0  0  0  0  0  0  0  0  0  0  0
  -24.2788   17.0248  135.1614 C   0  0  0  0  0  0  0  0  0  0  0  0
  -25.3654   16.8607  135.9730 C   0  0  0  0  0  0  0  0  0  0  0  0
  -25.1397   16.7969  137.3309 C   0  0  0  0  0  0  0  0  0  0  0  0
  -23.8962   16.8900  137.8667 C   0  0  0  0  0  0  0  0  0  0  0  0
  -22.7922   17.0584  137.0110 C   0  0  0  0  0  0  0  0  0  0  0  0
  -21.4806   17.1624  137.6755 C   0  0  0  0  0  0  0  0  0  0  0  0
  -21.0719   18.5238  138.1120 C   0  0  0  0  0  0  0  0  0  0  0  0
  1  2  2  0
  2  3  1  0
  2  4  1  0
  4  5  2  0
  4  6  1  0
  5 11  1  0
  6  7  1  0
  6  8  1  0
  8  9  2  0
  8 10  1  0
 10 11  2  0
 11 12  1  0
 12 13  2  0
 12 17  1  0
 13 14  1  0
 14 15  2  0
 15 16  1  0
 16 17  2  0
 18 17  1  1
 19 18  1  6
M  END
$$$$
