
     RDKit          3D

 19 20  0  0  0  0  0  0  0  0999 V2000
  -16.8333   17.2926  133.7985 O   0  0  0  0  0  0  0  0  0  0  0  0
  -17.8257   17.0978  134.5424 C   0  0  0  0  0  0  0  0  0  0  0  0
  -17.5867   16.8818  135.8967 O   0  0  0  0  0  0  0  0  0  0  0  0
  -19.1919   17.0999  133.9987 C   0  0  0  0  0  0  0  0  0  0  0  0
  -20.1460   16.8644  134.7950 N   0  0  0  0  0  0  0  0  0  0  0  0
  -19.3528   17.3830  132.5603 C   0  0  0  0  0  0  0  0  0  0  0  0
  -18.6754   16.3392  131.8865 O   0  0  0  0  0  0  0  0  0  0  0  0
  -20.7727   17.3497  132.1741 C   0  0  0  0  0  0  0  0  0  0  0  0
  -21.1292   17.5734  130.9606 O   0  0  0  0  0  0  0  0  0  0  0  0
  -21.8071   17.0544  133.1968 C   0  0  0  0  0  0  0  0  0  0  0  0
  -21.5537   16.8256  134.4381 C   0  0  0  0  0  0  0  0  0  0  0  0
  -22.5302   16.6586  135.4980 C   0  0  0  0  0  0  0  0  0  0  0  0
  -23.5897   17.5992  135.4213 C   0  0  0  0  0  0  0  0  0  0  0  0
  -24.6763   17.5508  136.2478 C   0  0  0  0  0  0  0  0  0  0  0  0
  -24.7182   16.5395  137.1829 C   0  0  0  0  0  0  0  0  0  0  0  0
  -23.7317   15.6145  137.2985 C   0  0  0  0  0  0  0  0  0  0  0  0
  -22.6223   15.6843  136.4360 C   0  0  0  0  0  0  0  0  0  0  0  0
  -21.5924   14.6493  136.6372 C   0  0  0  0  0  0  0  0  0  0  0  0
  -21.6907   13.4474  135.7674 C   0  0  0  0  0  0  0  0  0  0  0  0
  1  2  2  0
  2  3  1  0
  2  4  1  0
  4  5  2  0
  4  6  1  0
  5 11  1  0
  6  7  1  0
  6  8  1  0
  8  9  2  0
  8 10  1  0
 10 11  2  0
 11 12  1  0
 12 13  2  0
 12 17  1  0
 13 14  1  0
 14 15  2  0
 15 16  1  0
 16 17  2  0
 18 17  1  1
 19 18  1  6
M  END
$$$$
