
     RDKit          3D

 19 20  0  0  0  0  0  0  0  0999 V2000
  -20.7985   18.5367  131.0417 O   0  0  0  0  0  0  0  0  0  0  0  0
  -21.1711   18.3054  132.2183 C   0  0  0  0  0  0  0  0  0  0  0  0
  -22.3707   18.8403  132.6303 O   0  0  0  0  0  0  0  0  0  0  0  0
  -20.3184   17.4811  133.1011 C   0  0  0  0  0  0  0  0  0  0  0  0
  -20.6995   17.1168  134.2471 N   0  0  0  0  0  0  0  0  0  0  0  0
  -18.9976   17.1112  132.5397 C   0  0  0  0  0  0  0  0  0  0  0  0
  -19.1316   16.4740  131.2996 O   0  0  0  0  0  0  0  0  0  0  0  0
  -18.2457   16.3058  133.4980 C   0  0  0  0  0  0  0  0  0  0  0  0
  -17.0799   15.8996  133.1892 O   0  0  0  0  0  0  0  0  0  0  0  0
  -18.7816   15.9457  134.7993 C   0  0  0  0  0  0  0  0  0  0  0  0
  -19.9573   16.3125  135.1965 C   0  0  0  0  0  0  0  0  0  0  0  0
  -20.6737   15.9464  136.4067 C   0  0  0  0  0  0  0  0  0  0  0  0
  -21.5003   14.8007  136.3420 C   0  0  0  0  0  0  0  0  0  0  0  0
  -22.1430   14.2963  137.4334 C   0  0  0  0  0  0  0  0  0  0  0  0
  -22.0106   14.8947  138.6724 C   0  0  0  0  0  0  0  0  0  0  0  0
  -21.2215   15.9950  138.7544 C   0  0  0  0  0  0  0  0  0  0  0  0
  -20.5454   16.5333  137.6263 C   0  0  0  0  0  0  0  0  0  0  0  0
  -19.7628   17.7285  137.9038 C   0  0  0  0  0  0  0  0  0  0  0  0
  -18.2770   17.4748  137.9508 C   0  0  0  0  0  0  0  0  0  0  0  0
  1  2  2  0
  2  3  1  0
  2  4  1  0
  4  5  2  0
  4  6  1  0
  5 11  1  0
  6  7  1  0
  6  8  1  0
  8  9  2  0
  8 10  1  0
 10 11  2  0
 11 12  1  0
 12 13  2  0
 12 17  1  0
 13 14  1  0
 14 15  2  0
 15 16  1  0
 16 17  2  0
 17 18  1  0
 18 19  1  0
M  END
$$$$
