
     RDKit          3D

 19 20  0  0  0  0  0  0  0  0999 V2000
  -17.3920   15.7872  133.6877 O   0  0  0  0  0  0  0  0  0  0  0  0
  -18.2889   15.9341  134.5542 C   0  0  0  0  0  0  0  0  0  0  0  0
  -18.0048   15.5511  135.8455 O   0  0  0  0  0  0  0  0  0  0  0  0
  -19.5949   16.5027  134.1582 C   0  0  0  0  0  0  0  0  0  0  0  0
  -20.5326   16.6619  134.9868 N   0  0  0  0  0  0  0  0  0  0  0  0
  -19.7152   16.8763  132.7291 C   0  0  0  0  0  0  0  0  0  0  0  0
  -18.6930   17.7531  132.3439 O   0  0  0  0  0  0  0  0  0  0  0  0
  -21.0430   17.4191  132.4558 C   0  0  0  0  0  0  0  0  0  0  0  0
  -21.3317   17.7900  131.2732 O   0  0  0  0  0  0  0  0  0  0  0  0
  -22.0543   17.5552  133.4897 C   0  0  0  0  0  0  0  0  0  0  0  0
  -21.8482   17.2062  134.7186 C   0  0  0  0  0  0  0  0  0  0  0  0
  -22.7059   17.3796  135.8790 C   0  0  0  0  0  0  0  0  0  0  0  0
  -23.1665   18.6894  136.1472 C   0  0  0  0  0  0  0  0  0  0  0  0
  -24.0559   18.9656  137.1429 C   0  0  0  0  0  0  0  0  0  0  0  0
  -24.5544   17.9576  137.9467 C   0  0  0  0  0  0  0  0  0  0  0  0
  -24.1243   16.6941  137.7045 C   0  0  0  0  0  0  0  0  0  0  0  0
  -23.1974   16.3900  136.6711 C   0  0  0  0  0  0  0  0  0  0  0  0
  -22.8374   14.9830  136.5765 C   0  0  0  0  0  0  0  0  0  0  0  0
  -21.9888   14.5025  137.7268 C   0  0  0  0  0  0  0  0  0  0  0  0
  1  2  2  0
  2  3  1  0
  2  4  1  0
  4  5  2  0
  4  6  1  0
  5 11  1  0
  6  7  1  0
  6  8  1  0
  8  9  2  0
  8 10  1  0
 10 11  2  0
 11 12  1  0
 12 13  2  0
 12 17  1  0
 13 14  1  0
 14 15  2  0
 15 16  1  0
 16 17  2  0
 17 18  1  0
 18 19  1  0
M  END
$$$$
