
     RDKit          3D

 19 20  0  0  0  0  0  0  0  0999 V2000
  -17.0144   16.7296  133.5661 O   0  0  0  0  0  0  0  0  0  0  0  0
  -18.0127   16.3645  134.2342 C   0  0  0  0  0  0  0  0  0  0  0  0
  -17.7803   15.6576  135.4107 O   0  0  0  0  0  0  0  0  0  0  0  0
  -19.3785   16.6758  133.7871 C   0  0  0  0  0  0  0  0  0  0  0  0
  -20.3216   16.5235  134.6161 N   0  0  0  0  0  0  0  0  0  0  0  0
  -19.5507   17.1504  132.4014 C   0  0  0  0  0  0  0  0  0  0  0  0
  -19.1114   16.0886  131.5757 O   0  0  0  0  0  0  0  0  0  0  0  0
  -20.9684   17.4182  132.1104 C   0  0  0  0  0  0  0  0  0  0  0  0
  -21.3332   17.8435  130.9546 O   0  0  0  0  0  0  0  0  0  0  0  0
  -21.9910   17.1953  133.1630 C   0  0  0  0  0  0  0  0  0  0  0  0
  -21.7270   16.7803  134.3528 C   0  0  0  0  0  0  0  0  0  0  0  0
  -22.6671   16.6679  135.4521 C   0  0  0  0  0  0  0  0  0  0  0  0
  -23.6767   17.6640  135.4148 C   0  0  0  0  0  0  0  0  0  0  0  0
  -24.7297   17.6756  136.2849 C   0  0  0  0  0  0  0  0  0  0  0  0
  -24.7879   16.6696  137.2249 C   0  0  0  0  0  0  0  0  0  0  0  0
  -23.8486   15.6930  137.3038 C   0  0  0  0  0  0  0  0  0  0  0  0
  -22.7732   15.7015  136.3967 C   0  0  0  0  0  0  0  0  0  0  0  0
  -21.7930   14.6128  136.5599 C   0  0  0  0  0  0  0  0  0  0  0  0
  -20.7967   14.7843  137.6502 C   0  0  0  0  0  0  0  0  0  0  0  0
  1  2  2  0
  2  3  1  0
  2  4  1  0
  4  5  2  0
  4  6  1  0
  5 11  1  0
  6  7  1  0
  6  8  1  0
  8  9  2  0
  8 10  1  0
 10 11  2  0
 11 12  1  0
 12 13  2  0
 12 17  1  0
 13 14  1  0
 14 15  2  0
 15 16  1  0
 16 17  2  0
 18 17  1  1
 19 18  1  6
M  END
$$$$
