
     RDKit          3D

 19 20  0  0  0  0  0  0  0  0999 V2000
  -16.8325   17.2824  133.6250 O   0  0  0  0  0  0  0  0  0  0  0  0
  -17.8235   16.9893  134.3379 C   0  0  0  0  0  0  0  0  0  0  0  0
  -17.5791   16.5483  135.6355 O   0  0  0  0  0  0  0  0  0  0  0  0
  -19.1934   17.1103  133.8175 C   0  0  0  0  0  0  0  0  0  0  0  0
  -20.1508   16.9049  134.6182 N   0  0  0  0  0  0  0  0  0  0  0  0
  -19.3534   17.4693  132.3960 C   0  0  0  0  0  0  0  0  0  0  0  0
  -18.7593   16.4133  131.6652 O   0  0  0  0  0  0  0  0  0  0  0  0
  -20.7773   17.5515  132.0323 C   0  0  0  0  0  0  0  0  0  0  0  0
  -21.1336   17.8546  130.8360 O   0  0  0  0  0  0  0  0  0  0  0  0
  -21.8160   17.2817  133.0578 C   0  0  0  0  0  0  0  0  0  0  0  0
  -21.5625   16.9794  134.2832 C   0  0  0  0  0  0  0  0  0  0  0  0
  -22.5340   16.8318  135.3506 C   0  0  0  0  0  0  0  0  0  0  0  0
  -23.4919   17.8782  135.3693 C   0  0  0  0  0  0  0  0  0  0  0  0
  -24.5644   17.8772  136.2155 C   0  0  0  0  0  0  0  0  0  0  0  0
  -24.6954   16.8067  137.0733 C   0  0  0  0  0  0  0  0  0  0  0  0
  -23.8077   15.7803  137.0962 C   0  0  0  0  0  0  0  0  0  0  0  0
  -22.7110   15.8029  136.2152 C   0  0  0  0  0  0  0  0  0  0  0  0
  -21.7901   14.6563  136.3141 C   0  0  0  0  0  0  0  0  0  0  0  0
  -21.8446   13.6725  135.2006 C   0  0  0  0  0  0  0  0  0  0  0  0
  1  2  2  0
  2  3  1  0
  2  4  1  0
  4  5  2  0
  4  6  1  0
  5 11  1  0
  6  7  1  0
  6  8  1  0
  8  9  2  0
  8 10  1  0
 10 11  2  0
 11 12  1  0
 12 13  2  0
 12 17  1  0
 13 14  1  0
 14 15  2  0
 15 16  1  0
 16 17  2  0
 18 17  1  1
 19 18  1  6
M  END
$$$$
