
     RDKit          3D

 19 20  0  0  0  0  0  0  0  0999 V2000
  -21.3464   19.3957  131.9830 O   0  0  0  0  0  0  0  0  0  0  0  0
  -21.4687   18.9822  133.1620 C   0  0  0  0  0  0  0  0  0  0  0  0
  -22.3235   19.6831  134.0081 O   0  0  0  0  0  0  0  0  0  0  0  0
  -20.7341   17.7971  133.6292 C   0  0  0  0  0  0  0  0  0  0  0  0
  -20.9137   17.4226  134.8239 N   0  0  0  0  0  0  0  0  0  0  0  0
  -19.8422   17.1246  132.6663 C   0  0  0  0  0  0  0  0  0  0  0  0
  -18.8529   18.0788  132.3298 O   0  0  0  0  0  0  0  0  0  0  0  0
  -19.1844   15.9616  133.2837 C   0  0  0  0  0  0  0  0  0  0  0  0
  -18.3663   15.2352  132.6107 O   0  0  0  0  0  0  0  0  0  0  0  0
  -19.4678   15.6216  134.7005 C   0  0  0  0  0  0  0  0  0  0  0  0
  -20.2765   16.2799  135.4555 C   0  0  0  0  0  0  0  0  0  0  0  0
  -20.6843   15.9179  136.7999 C   0  0  0  0  0  0  0  0  0  0  0  0
  -21.3574   14.6700  136.8518 C   0  0  0  0  0  0  0  0  0  0  0  0
  -21.7250   14.0821  138.0289 C   0  0  0  0  0  0  0  0  0  0  0  0
  -21.4182   14.7493  139.1949 C   0  0  0  0  0  0  0  0  0  0  0  0
  -20.7760   15.9450  139.2012 C   0  0  0  0  0  0  0  0  0  0  0  0
  -20.4069   16.5311  137.9765 C   0  0  0  0  0  0  0  0  0  0  0  0
  -19.7247   17.8341  138.0734 C   0  0  0  0  0  0  0  0  0  0  0  0
  -20.6023   19.0338  138.1071 C   0  0  0  0  0  0  0  0  0  0  0  0
  1  2  2  0
  2  3  1  0
  2  4  1  0
  4  5  2  0
  4  6  1  0
  5 11  1  0
  6  7  1  0
  6  8  1  0
  8  9  2  0
  8 10  1  0
 10 11  2  0
 11 12  1  0
 12 13  2  0
 12 17  1  0
 13 14  1  0
 14 15  2  0
 15 16  1  0
 16 17  2  0
 18 17  1  1
 19 18  1  6
M  END
$$$$
