
     RDKit          3D

 19 20  0  0  0  0  0  0  0  0999 V2000
  -16.5586   16.9769  133.4994 O   0  0  0  0  0  0  0  0  0  0  0  0
  -17.3260   16.4322  134.3307 C   0  0  0  0  0  0  0  0  0  0  0  0
  -16.7637   15.8774  135.4581 O   0  0  0  0  0  0  0  0  0  0  0  0
  -18.7808   16.4079  134.0686 C   0  0  0  0  0  0  0  0  0  0  0  0
  -19.6066   15.9879  134.9247 N   0  0  0  0  0  0  0  0  0  0  0  0
  -19.1928   16.9178  132.7394 C   0  0  0  0  0  0  0  0  0  0  0  0
  -18.7041   18.2114  132.5161 O   0  0  0  0  0  0  0  0  0  0  0  0
  -20.6436   16.8408  132.5930 C   0  0  0  0  0  0  0  0  0  0  0  0
  -21.1806   17.2317  131.5074 O   0  0  0  0  0  0  0  0  0  0  0  0
  -21.5048   16.3333  133.6471 C   0  0  0  0  0  0  0  0  0  0  0  0
  -21.0467   15.9167  134.7834 C   0  0  0  0  0  0  0  0  0  0  0  0
  -21.7747   15.4903  135.9667 C   0  0  0  0  0  0  0  0  0  0  0  0
  -21.4217   14.2384  136.5215 C   0  0  0  0  0  0  0  0  0  0  0  0
  -21.9577   13.7737  137.6857 C   0  0  0  0  0  0  0  0  0  0  0  0
  -22.8860   14.5213  138.3859 C   0  0  0  0  0  0  0  0  0  0  0  0
  -23.2372   15.7254  137.8693 C   0  0  0  0  0  0  0  0  0  0  0  0
  -22.6881   16.2235  136.6570 C   0  0  0  0  0  0  0  0  0  0  0  0
  -23.2013   17.5231  136.2497 C   0  0  0  0  0  0  0  0  0  0  0  0
  -22.3681   18.6786  136.7441 C   0  0  0  0  0  0  0  0  0  0  0  0
  1  2  2  0
  2  3  1  0
  2  4  1  0
  4  5  2  0
  4  6  1  0
  5 11  1  0
  6  7  1  0
  6  8  1  0
  8  9  2  0
  8 10  1  0
 10 11  2  0
 11 12  1  0
 12 13  2  0
 12 17  1  0
 13 14  1  0
 14 15  2  0
 15 16  1  0
 16 17  2  0
 17 18  1  0
 18 19  1  0
M  END
$$$$
