
     RDKit          3D

 19 20  0  0  0  0  0  0  0  0999 V2000
  -17.1206   15.8208  133.8522 O   0  0  0  0  0  0  0  0  0  0  0  0
  -18.1272   15.8933  134.5989 C   0  0  0  0  0  0  0  0  0  0  0  0
  -18.0280   15.3433  135.8739 O   0  0  0  0  0  0  0  0  0  0  0  0
  -19.3660   16.5390  134.1398 C   0  0  0  0  0  0  0  0  0  0  0  0
  -20.3647   16.5222  134.9160 N   0  0  0  0  0  0  0  0  0  0  0  0
  -19.3535   17.1669  132.8055 C   0  0  0  0  0  0  0  0  0  0  0  0
  -19.1089   16.1159  131.8901 O   0  0  0  0  0  0  0  0  0  0  0  0
  -20.6610   17.7672  132.4953 C   0  0  0  0  0  0  0  0  0  0  0  0
  -20.8597   18.3683  131.3777 O   0  0  0  0  0  0  0  0  0  0  0  0
  -21.7650   17.6786  133.4836 C   0  0  0  0  0  0  0  0  0  0  0  0
  -21.6642   17.1066  134.6325 C   0  0  0  0  0  0  0  0  0  0  0  0
  -22.6664   17.1027  135.6815 C   0  0  0  0  0  0  0  0  0  0  0  0
  -23.8956   16.5303  135.2639 C   0  0  0  0  0  0  0  0  0  0  0  0
  -24.9370   16.3193  136.1226 C   0  0  0  0  0  0  0  0  0  0  0  0
  -24.7591   16.6868  137.4388 C   0  0  0  0  0  0  0  0  0  0  0  0
  -23.6040   17.2383  137.8901 C   0  0  0  0  0  0  0  0  0  0  0  0
  -22.5451   17.4458  136.9873 C   0  0  0  0  0  0  0  0  0  0  0  0
  -21.3324   18.0598  137.5574 C   0  0  0  0  0  0  0  0  0  0  0  0
  -20.5247   17.2002  138.4626 C   0  0  0  0  0  0  0  0  0  0  0  0
  1  2  2  0
  2  3  1  0
  2  4  1  0
  4  5  2  0
  4  6  1  0
  5 11  1  0
  6  7  1  0
  6  8  1  0
  8  9  2  0
  8 10  1  0
 10 11  2  0
 11 12  1  0
 12 13  2  0
 12 17  1  0
 13 14  1  0
 14 15  2  0
 15 16  1  0
 16 17  2  0
 18 17  1  1
 19 18  1  6
M  END
$$$$
