
     RDKit          3D

 19 20  0  0  0  0  0  0  0  0999 V2000
  -21.2387   18.5669  131.4504 O   0  0  0  0  0  0  0  0  0  0  0  0
  -21.4271   18.3176  132.6667 C   0  0  0  0  0  0  0  0  0  0  0  0
  -22.5448   18.8512  133.2673 O   0  0  0  0  0  0  0  0  0  0  0  0
  -20.4545   17.4745  133.3941 C   0  0  0  0  0  0  0  0  0  0  0  0
  -20.6714   17.0661  134.5677 N   0  0  0  0  0  0  0  0  0  0  0  0
  -19.2206   17.1411  132.6439 C   0  0  0  0  0  0  0  0  0  0  0  0
  -19.5188   16.5453  131.4118 O   0  0  0  0  0  0  0  0  0  0  0  0
  -18.3376   16.3130  133.4605 C   0  0  0  0  0  0  0  0  0  0  0  0
  -17.2221   15.9327  132.9804 O   0  0  0  0  0  0  0  0  0  0  0  0
  -18.6864   15.9015  134.8093 C   0  0  0  0  0  0  0  0  0  0  0  0
  -19.7993   16.2393  135.3768 C   0  0  0  0  0  0  0  0  0  0  0  0
  -20.3395   15.8226  136.6600 C   0  0  0  0  0  0  0  0  0  0  0  0
  -20.8516   14.5071  136.7446 C   0  0  0  0  0  0  0  0  0  0  0  0
  -21.2914   13.9642  137.9153 C   0  0  0  0  0  0  0  0  0  0  0  0
  -21.2540   14.6905  139.0908 C   0  0  0  0  0  0  0  0  0  0  0  0
  -20.7658   15.9546  139.0296 C   0  0  0  0  0  0  0  0  0  0  0  0
  -20.3041   16.5350  137.8174 C   0  0  0  0  0  0  0  0  0  0  0  0
  -19.8366   17.9074  137.9437 C   0  0  0  0  0  0  0  0  0  0  0  0
  -18.3346   18.0258  138.0073 C   0  0  0  0  0  0  0  0  0  0  0  0
  1  2  2  0
  2  3  1  0
  2  4  1  0
  4  5  2  0
  4  6  1  0
  5 11  1  0
  6  7  1  0
  6  8  1  0
  8  9  2  0
  8 10  1  0
 10 11  2  0
 11 12  1  0
 12 13  2  0
 12 17  1  0
 13 14  1  0
 14 15  2  0
 15 16  1  0
 16 17  2  0
 17 18  1  0
 18 19  1  0
M  END
$$$$
