
     RDKit          3D

 40 42  0  0  0  0  0  0  0  0999 V2000
  -14.2164   28.4868    2.2614 C   0  0  1  0  0  0  0  0  0  0  0  0
  -15.3026   29.5317    2.5058 C   0  0  1  0  0  0  0  0  0  0  0  0
  -15.1130   30.7817    1.6945 C   0  0  2  0  0  0  0  0  0  0  0  0
  -14.0030   30.5306    0.6994 C   0  0  1  0  0  0  0  0  0  0  0  0
  -14.2614   29.1948    0.0588 C   0  0  1  0  0  0  0  0  0  0  0  0
  -13.4088   29.0001   -1.1907 C   0  0  0  0  0  0  0  0  0  0  0  0
  -17.5731   28.8284    3.3505 C   0  0  0  0  0  0  0  0  0  0  0  0
  -17.8407   27.5000    3.9619 C   0  0  0  0  0  0  0  0  0  0  0  0
  -16.6263   28.9353    2.2952 N   0  0  0  0  0  0  0  0  0  0  0  0
  -14.7203   31.8765    2.4882 O   0  0  0  0  0  0  0  0  0  0  0  0
  -14.1476   31.5168   -0.3006 O   0  0  0  0  0  0  0  0  0  0  0  0
  -14.1508   28.1387    0.9177 O   0  0  0  0  0  0  0  0  0  0  0  0
  -12.5089   30.0447   -1.3652 O   0  0  0  0  0  0  0  0  0  0  0  0
  -18.1825   29.8286    3.7722 O   0  0  0  0  0  0  0  0  0  0  0  0
  -10.8607   26.9218    2.6229 O   0  0  0  0  0  0  0  0  0  0  0  0
   -9.7207   26.2961    3.0572 C   0  0  2  0  0  0  0  0  0  0  0  0
   -9.9188   24.9413    3.2138 O   0  0  0  0  0  0  0  0  0  0  0  0
   -9.3524   26.9608    4.3579 C   0  0  2  0  0  0  0  0  0  0  0  0
   -8.0036   26.6428    4.7765 N   0  0  0  0  0  0  0  0  0  0  0  0
  -10.3827   26.6001    5.3785 C   0  0  1  0  0  0  0  0  0  0  0  0
  -10.3600   27.5338    6.3634 O   0  0  0  0  0  0  0  0  0  0  0  0
  -11.6567   26.2203    4.7933 C   0  0  1  0  0  0  0  0  0  0  0  0
  -12.7794   26.5187    5.5769 O   0  0  0  0  0  0  0  0  0  0  0  0
  -11.9270   26.8712    3.4535 C   0  0  1  0  0  0  0  0  0  0  0  0
  -12.4083   28.2690    3.7552 C   0  0  0  0  0  0  0  0  0  0  0  0
  -13.0693   28.9340    2.7959 O   0  0  0  0  0  0  0  0  0  0  0  0
   -7.1753   27.5445    5.5029 C   0  0  0  0  0  0  0  0  0  0  0  0
   -7.5608   28.7379    5.6039 O   0  0  0  0  0  0  0  0  0  0  0  0
   -5.8952   27.0858    6.1211 C   0  0  0  0  0  0  0  0  0  0  0  0
  -10.3849   27.1179    7.6592 C   0  0  1  0  0  0  0  0  0  0  0  0
   -9.0976   27.3957    8.4091 C   0  0  1  0  0  0  0  0  0  0  0  0
   -9.4164   28.1404    9.7109 C   0  0  2  0  0  0  0  0  0  0  0  0
  -10.4259   27.3214   10.4815 C   0  0  2  0  0  0  0  0  0  0  0  0
  -11.5522   26.8817    9.5742 C   0  0  1  0  0  0  0  0  0  0  0  0
  -12.9005   27.0128   10.2462 C   0  0  0  0  0  0  0  0  0  0  0  0
   -8.4430   26.2255    8.7971 O   0  0  0  0  0  0  0  0  0  0  0  0
  -10.0162   29.3366    9.3560 O   0  0  0  0  0  0  0  0  0  0  0  0
  -10.9387   28.0580   11.5322 O   0  0  0  0  0  0  0  0  0  0  0  0
  -11.5084   27.5674    8.3695 O   0  0  0  0  0  0  0  0  0  0  0  0
  -13.8826   26.6992    9.3375 O   0  0  0  0  0  0  0  0  0  0  0  0
  1  2  1  0
  1 12  1  0
  1 26  1  6
  2  3  1  0
  2  9  1  6
  3  4  1  0
  3 10  1  1
  5  4  1  0
  4 11  1  6
  5  6  1  6
 12  5  1  0
  6 13  1  0
  7  8  1  0
  9  7  1  0
  7 14  2  0
 15 16  1  0
 24 15  1  0
 16 17  1  1
 16 18  1  0
 18 19  1  1
 20 18  1  0
 19 27  1  0
 20 21  1  1
 22 20  1  0
 30 21  1  6
 22 23  1  1
 24 22  1  0
 24 25  1  1
 25 26  1  0
 27 28  2  0
 27 29  1  0
 30 31  1  0
 30 39  1  0
 31 32  1  0
 31 36  1  1
 32 33  1  0
 32 37  1  6
 33 34  1  0
 33 38  1  1
 34 35  1  1
 34 39  1  0
 35 40  1  0
M  END
$$$$
