
     RDKit          3D

 40 42  0  0  0  0  0  0  0  0999 V2000
   -9.9685   28.0709    6.0054 C   0  0  1  0  0  0  0  0  0  0  0  0
   -8.5758   27.8072    6.5353 C   0  0  1  0  0  0  0  0  0  0  0  0
   -8.3887   28.3921    7.9187 C   0  0  2  0  0  0  0  0  0  0  0  0
   -9.7548   28.7454    8.5058 C   0  0  1  0  0  0  0  0  0  0  0  0
  -10.6764   27.6098    8.1891 C   0  0  1  0  0  0  0  0  0  0  0  0
  -12.0134   27.8884    8.8985 C   0  0  0  0  0  0  0  0  0  0  0  0
   -7.8553   25.7398    5.2987 C   0  0  0  0  0  0  0  0  0  0  0  0
   -8.8512   24.9069    4.5614 C   0  0  0  0  0  0  0  0  0  0  0  0
   -8.2597   26.3933    6.4857 N   0  0  0  0  0  0  0  0  0  0  0  0
   -7.6639   29.5619    7.8679 O   0  0  0  0  0  0  0  0  0  0  0  0
   -9.6564   28.9630    9.8815 O   0  0  0  0  0  0  0  0  0  0  0  0
  -10.9471   27.5576    6.8592 O   0  0  0  0  0  0  0  0  0  0  0  0
  -13.0407   27.2826    8.1798 O   0  0  0  0  0  0  0  0  0  0  0  0
   -6.6871   25.8570    4.8746 O   0  0  0  0  0  0  0  0  0  0  0  0
  -12.2922   31.0384    3.8665 O   0  0  0  0  0  0  0  0  0  0  0  0
  -13.6315   31.0661    3.4803 C   0  0  2  0  0  0  0  0  0  0  0  0
  -14.4411   30.3199    4.3209 O   0  0  0  0  0  0  0  0  0  0  0  0
  -13.6892   30.4117    2.1209 C   0  0  2  0  0  0  0  0  0  0  0  0
  -14.8981   30.6143    1.4210 N   0  0  0  0  0  0  0  0  0  0  0  0
  -13.3656   28.9379    2.3758 C   0  0  1  0  0  0  0  0  0  0  0  0
  -13.6231   28.2766    1.2094 O   0  0  0  0  0  0  0  0  0  0  0  0
  -11.8787   28.9527    2.7325 C   0  0  1  0  0  0  0  0  0  0  0  0
  -11.1041   29.4955    1.7382 O   0  0  0  0  0  0  0  0  0  0  0  0
  -11.7878   29.7889    4.0227 C   0  0  1  0  0  0  0  0  0  0  0  0
  -10.3709   29.8440    4.5144 C   0  0  0  0  0  0  0  0  0  0  0  0
  -10.1392   29.3982    5.7650 O   0  0  0  0  0  0  0  0  0  0  0  0
  -15.3273   31.9336    1.1065 C   0  0  0  0  0  0  0  0  0  0  0  0
  -15.2131   32.3554   -0.0874 O   0  0  0  0  0  0  0  0  0  0  0  0
  -15.9086   32.8683    2.0889 C   0  0  0  0  0  0  0  0  0  0  0  0
  -14.9166   27.7616    1.1009 C   0  0  1  0  0  0  0  0  0  0  0  0
  -15.6189   28.0546   -0.1518 C   0  0  1  0  0  0  0  0  0  0  0  0
  -15.7074   26.9660   -1.1631 C   0  0  2  0  0  0  0  0  0  0  0  0
  -15.1011   25.6581   -0.7084 C   0  0  2  0  0  0  0  0  0  0  0  0
  -15.5542   25.5545    0.7564 C   0  0  1  0  0  0  0  0  0  0  0  0
  -15.2075   24.1515    1.1927 C   0  0  0  0  0  0  0  0  0  0  0  0
  -16.9505   28.4627    0.1191 O   0  0  0  0  0  0  0  0  0  0  0  0
  -15.0748   27.2914   -2.3804 O   0  0  0  0  0  0  0  0  0  0  0  0
  -13.7090   25.8158   -0.7757 O   0  0  0  0  0  0  0  0  0  0  0  0
  -14.8029   26.4337    1.4595 O   0  0  0  0  0  0  0  0  0  0  0  0
  -13.7969   24.1015    1.2832 O   0  0  0  0  0  0  0  0  0  0  0  0
  1  2  1  0
  1 12  1  0
  1 26  1  1
  2  3  1  0
  2  9  1  1
  3  4  1  0
  3 10  1  6
  5  4  1  0
  4 11  1  1
  5  6  1  0
  5 12  1  6
  6 13  1  6
  8  7  1  6
  9  7  1  0
  7 14  2  0
 15 16  1  0
 24 15  1  6
 16 17  1  1
 16 18  1  0
 18 19  1  1
 20 18  1  0
 19 27  1  0
 20 21  1  6
 22 20  1  0
 30 21  1  6
 22 23  1  6
 24 22  1  0
 25 24  1  0
 25 26  1  6
 27 28  2  0
 29 27  1  6
 30 31  1  0
 30 39  1  0
 31 32  1  0
 31 36  1  1
 32 33  1  0
 32 37  1  6
 33 34  1  0
 33 38  1  1
 34 35  1  0
 34 39  1  1
 35 40  1  6
M  END
$$$$
