
     RDKit          3D

 40 42  0  0  0  0  0  0  0  0999 V2000
  -11.5933   26.9213    5.7816 C   0  0  1  0  0  0  0  0  0  0  0  0
  -10.6101   27.7203    6.6092 C   0  0  1  0  0  0  0  0  0  0  0  0
  -11.3147   28.5409    7.6681 C   0  0  2  0  0  0  0  0  0  0  0  0
  -12.7505   28.0403    7.8215 C   0  0  1  0  0  0  0  0  0  0  0  0
  -12.6980   26.5448    7.8115 C   0  0  1  0  0  0  0  0  0  0  0  0
  -14.1177   26.0309    8.1096 C   0  0  0  0  0  0  0  0  0  0  0  0
   -8.2023   27.1464    7.0508 C   0  0  0  0  0  0  0  0  0  0  0  0
   -7.2275   26.0183    7.1310 C   0  0  0  0  0  0  0  0  0  0  0  0
   -9.5828   26.8632    7.1670 N   0  0  0  0  0  0  0  0  0  0  0  0
  -11.3933   29.8649    7.2975 O   0  0  0  0  0  0  0  0  0  0  0  0
  -13.3175   28.5297    8.9998 O   0  0  0  0  0  0  0  0  0  0  0  0
  -12.3673   26.0767    6.5801 O   0  0  0  0  0  0  0  0  0  0  0  0
  -14.7967   25.8563    6.9066 O   0  0  0  0  0  0  0  0  0  0  0  0
   -7.8053   28.3181    6.8840 O   0  0  0  0  0  0  0  0  0  0  0  0
  -12.5230   30.0920    2.6341 O   0  0  0  0  0  0  0  0  0  0  0  0
  -13.4363   30.8359    1.8883 C   0  0  2  0  0  0  0  0  0  0  0  0
  -14.6936   30.8675    2.4688 O   0  0  0  0  0  0  0  0  0  0  0  0
  -13.5810   30.1191    0.5673 C   0  0  2  0  0  0  0  0  0  0  0  0
  -14.2188   30.8703   -0.4432 N   0  0  0  0  0  0  0  0  0  0  0  0
  -14.2957   28.8083    0.9031 C   0  0  1  0  0  0  0  0  0  0  0  0
  -14.6388   28.2370   -0.2886 O   0  0  0  0  0  0  0  0  0  0  0  0
  -13.2379   28.0061    1.6619 C   0  0  1  0  0  0  0  0  0  0  0  0
  -12.0980   27.8079    0.9241 O   0  0  0  0  0  0  0  0  0  0  0  0
  -12.9413   28.8350    2.9257 C   0  0  1  0  0  0  0  0  0  0  0  0
  -11.9416   28.1290    3.7944 C   0  0  0  0  0  0  0  0  0  0  0  0
  -12.3548   27.7515    5.0205 O   0  0  0  0  0  0  0  0  0  0  0  0
  -13.5643   31.9968   -1.0147 C   0  0  0  0  0  0  0  0  0  0  0  0
  -12.3149   31.9389   -1.2427 O   0  0  0  0  0  0  0  0  0  0  0  0
  -14.2472   33.2555   -1.3696 C   0  0  0  0  0  0  0  0  0  0  0  0
  -15.4134   29.0444   -1.1242 C   0  0  1  0  0  0  0  0  0  0  0  0
  -14.9892   29.1072   -2.5258 C   0  0  1  0  0  0  0  0  0  0  0  0
  -15.7637   28.3108   -3.5165 C   0  0  2  0  0  0  0  0  0  0  0  0
  -16.9511   27.5863   -2.9247 C   0  0  2  0  0  0  0  0  0  0  0  0
  -17.5416   28.6203   -1.9532 C   0  0  1  0  0  0  0  0  0  0  0  0
  -18.8774   28.0623   -1.5256 C   0  0  0  0  0  0  0  0  0  0  0  0
  -15.0107   30.4503   -2.9825 O   0  0  0  0  0  0  0  0  0  0  0  0
  -14.9859   27.3293   -4.1641 O   0  0  0  0  0  0  0  0  0  0  0  0
  -16.4395   26.4902   -2.2146 O   0  0  0  0  0  0  0  0  0  0  0  0
  -16.7171   28.6623   -0.8808 O   0  0  0  0  0  0  0  0  0  0  0  0
  -18.7680   27.7872   -0.1425 O   0  0  0  0  0  0  0  0  0  0  0  0
  1  2  1  0
  1 12  1  0
  1 26  1  1
  2  3  1  0
  2  9  1  1
  3  4  1  0
  3 10  1  6
  5  4  1  0
  4 11  1  1
  5  6  1  0
  5 12  1  6
  6 13  1  6
  8  7  1  6
  9  7  1  0
  7 14  2  0
 15 16  1  0
 24 15  1  6
 16 17  1  1
 16 18  1  0
 18 19  1  6
 20 18  1  0
 19 27  1  0
 20 21  1  6
 22 20  1  0
 30 21  1  1
 22 23  1  6
 24 22  1  0
 25 24  1  0
 25 26  1  6
 27 28  2  0
 29 27  1  6
 30 31  1  0
 30 39  1  0
 31 32  1  0
 31 36  1  6
 32 33  1  0
 32 37  1  1
 33 34  1  0
 33 38  1  1
 34 35  1  0
 34 39  1  1
 35 40  1  6
M  END
$$$$
