
     RDKit          3D

 40 42  0  0  0  0  0  0  0  0999 V2000
  -15.0744   30.3381    2.3243 C   0  0  1  0  0  0  0  0  0  0  0  0
  -13.6588   30.8968    2.4478 C   0  0  1  0  0  0  0  0  0  0  0  0
  -13.6283   32.3742    2.7178 C   0  0  2  0  0  0  0  0  0  0  0  0
  -15.0411   32.8265    3.0093 C   0  0  1  0  0  0  0  0  0  0  0  0
  -15.6385   31.8492    3.9836 C   0  0  1  0  0  0  0  0  0  0  0  0
  -16.9209   32.3929    4.6050 C   0  0  0  0  0  0  0  0  0  0  0  0
  -11.7115   29.4442    3.1267 C   0  0  0  0  0  0  0  0  0  0  0  0
  -11.2026   28.3897    4.0427 C   0  0  0  0  0  0  0  0  0  0  0  0
  -12.9081   30.1385    3.4546 N   0  0  0  0  0  0  0  0  0  0  0  0
  -13.1776   33.1093    1.6045 O   0  0  0  0  0  0  0  0  0  0  0  0
  -14.9224   34.0681    3.6712 O   0  0  0  0  0  0  0  0  0  0  0  0
  -15.8152   30.5954    3.4715 O   0  0  0  0  0  0  0  0  0  0  0  0
  -17.8838   31.4005    4.7443 O   0  0  0  0  0  0  0  0  0  0  0  0
  -11.0816   29.7039    2.0849 O   0  0  0  0  0  0  0  0  0  0  0  0
  -15.6187   31.1984   -2.0474 O   0  0  0  0  0  0  0  0  0  0  0  0
  -15.6698   30.7037   -3.3250 C   0  0  2  0  0  0  0  0  0  0  0  0
  -16.9339   30.8231   -3.8607 O   0  0  0  0  0  0  0  0  0  0  0  0
  -15.2370   29.2639   -3.2302 C   0  0  2  0  0  0  0  0  0  0  0  0
  -14.9234   28.6965   -4.5245 N   0  0  0  0  0  0  0  0  0  0  0  0
  -16.2938   28.5025   -2.4975 C   0  0  1  0  0  0  0  0  0  0  0  0
  -15.7362   27.3775   -1.9821 O   0  0  0  0  0  0  0  0  0  0  0  0
  -17.1117   29.3431   -1.6406 C   0  0  1  0  0  0  0  0  0  0  0  0
  -17.6104   28.7103   -0.4942 O   0  0  0  0  0  0  0  0  0  0  0  0
  -16.3908   30.5725   -1.1300 C   0  0  1  0  0  0  0  0  0  0  0  0
  -15.5392   30.1098    0.0265 C   0  0  0  0  0  0  0  0  0  0  0  0
  -15.6110   30.7904    1.1802 O   0  0  0  0  0  0  0  0  0  0  0  0
  -13.5946   28.5414   -5.0112 C   0  0  0  0  0  0  0  0  0  0  0  0
  -12.8807   27.6497   -4.4835 O   0  0  0  0  0  0  0  0  0  0  0  0
  -13.0708   29.4083   -6.1090 C   0  0  0  0  0  0  0  0  0  0  0  0
  -15.8520   26.2130   -2.6773 C   0  0  1  0  0  0  0  0  0  0  0  0
  -14.5198   25.6121   -3.0781 C   0  0  1  0  0  0  0  0  0  0  0  0
  -14.4644   24.1477   -2.6268 C   0  0  2  0  0  0  0  0  0  0  0  0
  -15.6693   23.4376   -3.1990 C   0  0  2  0  0  0  0  0  0  0  0  0
  -16.9226   24.2486   -2.9610 C   0  0  1  0  0  0  0  0  0  0  0  0
  -18.0834   23.3789   -2.5333 C   0  0  0  0  0  0  0  0  0  0  0  0
  -14.3415   25.5849   -4.4623 O   0  0  0  0  0  0  0  0  0  0  0  0
  -14.5804   24.1452   -1.2472 O   0  0  0  0  0  0  0  0  0  0  0  0
  -15.8090   22.1898   -2.6218 O   0  0  0  0  0  0  0  0  0  0  0  0
  -16.6820   25.2692   -2.0534 O   0  0  0  0  0  0  0  0  0  0  0  0
  -19.1793   24.1778   -2.3111 O   0  0  0  0  0  0  0  0  0  0  0  0
  1  2  1  0
  1 12  1  0
  1 26  1  6
  2  3  1  0
  2  9  1  1
  3  4  1  0
  3 10  1  6
  5  4  1  0
  4 11  1  1
  5  6  1  6
 12  5  1  0
  6 13  1  0
  7  8  1  0
  9  7  1  0
  7 14  2  0
 15 16  1  0
 24 15  1  0
 16 17  1  1
 16 18  1  0
 18 19  1  6
 20 18  1  0
 19 27  1  0
 20 21  1  1
 22 20  1  0
 30 21  1  1
 22 23  1  1
 24 22  1  0
 24 25  1  1
 25 26  1  0
 27 28  2  0
 27 29  1  0
 30 31  1  0
 30 39  1  0
 31 32  1  0
 31 36  1  6
 32 33  1  0
 32 37  1  1
 33 34  1  0
 33 38  1  1
 34 35  1  1
 34 39  1  0
 35 40  1  0
M  END
$$$$
