
     RDKit          3D

 40 42  0  0  0  0  0  0  0  0999 V2000
   -9.5641   25.7678    8.0754 C   0  0  1  0  0  0  0  0  0  0  0  0
   -8.1098   26.0267    8.4038 C   0  0  1  0  0  0  0  0  0  0  0  0
   -7.9354   27.3232    9.1651 C   0  0  2  0  0  0  0  0  0  0  0  0
   -9.2944   27.7882    9.6871 C   0  0  1  0  0  0  0  0  0  0  0  0
   -9.9937   26.5811   10.2286 C   0  0  1  0  0  0  0  0  0  0  0  0
  -11.2999   27.0604   10.8862 C   0  0  0  0  0  0  0  0  0  0  0  0
   -6.2628   24.3566    8.7526 C   0  0  0  0  0  0  0  0  0  0  0  0
   -5.9215   22.9773    9.2110 C   0  0  0  0  0  0  0  0  0  0  0  0
   -7.5239   24.8960    9.0964 N   0  0  0  0  0  0  0  0  0  0  0  0
   -7.4637   28.3213    8.3418 O   0  0  0  0  0  0  0  0  0  0  0  0
   -9.1342   28.7739   10.6629 O   0  0  0  0  0  0  0  0  0  0  0  0
  -10.3515   25.7350    9.2282 O   0  0  0  0  0  0  0  0  0  0  0  0
  -11.8591   28.0647   10.1005 O   0  0  0  0  0  0  0  0  0  0  0  0
   -5.4494   25.0211    8.0780 O   0  0  0  0  0  0  0  0  0  0  0  0
  -10.8663   25.7389    4.5362 O   0  0  0  0  0  0  0  0  0  0  0  0
  -10.9237   25.8619    3.1487 C   0  0  2  0  0  0  0  0  0  0  0  0
  -10.4187   27.0722    2.7026 O   0  0  0  0  0  0  0  0  0  0  0  0
  -12.3892   25.8377    2.7861 C   0  0  2  0  0  0  0  0  0  0  0  0
  -12.6528   25.6394    1.4137 N   0  0  0  0  0  0  0  0  0  0  0  0
  -12.9564   27.1473    3.3385 C   0  0  1  0  0  0  0  0  0  0  0  0
  -14.2227   27.2622    2.8410 O   0  0  0  0  0  0  0  0  0  0  0  0
  -12.9316   26.9394    4.8532 C   0  0  1  0  0  0  0  0  0  0  0  0
  -13.6603   25.8450    5.2463 O   0  0  0  0  0  0  0  0  0  0  0  0
  -11.4424   26.7679    5.2065 C   0  0  1  0  0  0  0  0  0  0  0  0
  -11.2697   26.6016    6.6881 C   0  0  0  0  0  0  0  0  0  0  0  0
  -10.0134   26.6774    7.1702 O   0  0  0  0  0  0  0  0  0  0  0  0
  -13.3382   24.4703    0.9811 C   0  0  0  0  0  0  0  0  0  0  0  0
  -13.7704   23.6475    1.8486 O   0  0  0  0  0  0  0  0  0  0  0  0
  -13.5890   24.1371   -0.4340 C   0  0  0  0  0  0  0  0  0  0  0  0
  -14.3594   28.1723    1.7907 C   0  0  1  0  0  0  0  0  0  0  0  0
  -15.2729   27.7756    0.7153 C   0  0  1  0  0  0  0  0  0  0  0  0
  -16.6214   28.4053    0.6893 C   0  0  2  0  0  0  0  0  0  0  0  0
  -16.8327   29.4430    1.7680 C   0  0  2  0  0  0  0  0  0  0  0  0
  -15.4949   30.1989    1.7914 C   0  0  1  0  0  0  0  0  0  0  0  0
  -15.7271   31.4130    2.6578 C   0  0  0  0  0  0  0  0  0  0  0  0
  -14.6818   28.0357   -0.5480 O   0  0  0  0  0  0  0  0  0  0  0  0
  -17.6687   27.4720    0.8298 O   0  0  0  0  0  0  0  0  0  0  0  0
  -17.0150   28.7420    2.9692 O   0  0  0  0  0  0  0  0  0  0  0  0
  -14.5995   29.3870    2.4003 O   0  0  0  0  0  0  0  0  0  0  0  0
  -14.4716   31.7478    3.2164 O   0  0  0  0  0  0  0  0  0  0  0  0
  1  2  1  0
  1 12  1  0
  1 26  1  6
  2  3  1  0
  2  9  1  1
  3  4  1  0
  3 10  1  6
  5  4  1  0
  4 11  1  1
  5  6  1  0
  5 12  1  6
  6 13  1  6
  8  7  1  6
  9  7  1  0
  7 14  2  0
 15 16  1  0
 24 15  1  6
 16 17  1  1
 16 18  1  0
 18 19  1  6
 20 18  1  0
 19 27  1  0
 20 21  1  6
 22 20  1  0
 30 21  1  1
 22 23  1  6
 24 22  1  0
 25 24  1  0
 25 26  1  6
 27 28  2  0
 29 27  1  6
 30 31  1  0
 30 39  1  0
 31 32  1  0
 31 36  1  6
 32 33  1  0
 32 37  1  1
 33 34  1  0
 33 38  1  1
 34 35  1  0
 34 39  1  1
 35 40  1  6
M  END
$$$$
