
     RDKit          3D

 40 42  0  0  0  0  0  0  0  0999 V2000
  -14.9424   28.0063   -1.5718 C   0  0  1  0  0  0  0  0  0  0  0  0
  -15.8434   26.9301   -2.1372 C   0  0  1  0  0  0  0  0  0  0  0  0
  -17.1474   27.5081   -2.6437 C   0  0  2  0  0  0  0  0  0  0  0  0
  -17.0120   29.0254   -2.7678 C   0  0  1  0  0  0  0  0  0  0  0  0
  -15.6750   29.2986   -3.3817 C   0  0  1  0  0  0  0  0  0  0  0  0
  -15.5879   30.8126   -3.6438 C   0  0  0  0  0  0  0  0  0  0  0  0
  -14.9345   24.7612   -3.0271 C   0  0  0  0  0  0  0  0  0  0  0  0
  -14.1326   24.0657   -4.0770 C   0  0  0  0  0  0  0  0  0  0  0  0
  -15.1539   26.1529   -3.1481 N   0  0  0  0  0  0  0  0  0  0  0  0
  -18.1721   27.2725   -1.7542 O   0  0  0  0  0  0  0  0  0  0  0  0
  -18.0516   29.5494   -3.5387 O   0  0  0  0  0  0  0  0  0  0  0  0
  -14.6710   28.9966   -2.5182 O   0  0  0  0  0  0  0  0  0  0  0  0
  -14.2658   31.2220   -3.4909 O   0  0  0  0  0  0  0  0  0  0  0  0
  -15.4026   24.1253   -2.0602 O   0  0  0  0  0  0  0  0  0  0  0  0
  -12.9767   27.7968    1.1436 O   0  0  0  0  0  0  0  0  0  0  0  0
  -12.3809   27.0083    2.1270 C   0  0  2  0  0  0  0  0  0  0  0  0
  -13.2754   26.1298    2.7159 O   0  0  0  0  0  0  0  0  0  0  0  0
  -11.9245   27.9595    3.2072 C   0  0  2  0  0  0  0  0  0  0  0  0
  -11.0273   27.4008    4.1427 N   0  0  0  0  0  0  0  0  0  0  0  0
  -13.2133   28.4949    3.8349 C   0  0  1  0  0  0  0  0  0  0  0  0
  -12.8427   29.1845    4.9536 O   0  0  0  0  0  0  0  0  0  0  0  0
  -13.7945   29.3989    2.7472 C   0  0  1  0  0  0  0  0  0  0  0  0
  -12.9332   30.4024    2.3808 O   0  0  0  0  0  0  0  0  0  0  0  0
  -14.0842   28.4589    1.5620 C   0  0  1  0  0  0  0  0  0  0  0  0
  -14.7101   29.2191    0.4293 C   0  0  0  0  0  0  0  0  0  0  0  0
  -15.4752   28.5171   -0.4299 O   0  0  0  0  0  0  0  0  0  0  0  0
  -11.3947   26.2392    4.8771 C   0  0  0  0  0  0  0  0  0  0  0  0
  -11.3432   26.2658    6.1472 O   0  0  0  0  0  0  0  0  0  0  0  0
  -11.8413   24.9776    4.2563 C   0  0  0  0  0  0  0  0  0  0  0  0
  -13.6009   30.3276    5.2155 C   0  0  1  0  0  0  0  0  0  0  0  0
  -13.9159   30.5773    6.6251 C   0  0  1  0  0  0  0  0  0  0  0  0
  -13.1285   31.6240    7.3322 C   0  0  2  0  0  0  0  0  0  0  0  0
  -12.1366   32.3448    6.4481 C   0  0  2  0  0  0  0  0  0  0  0  0
  -12.9178   32.5466    5.1402 C   0  0  1  0  0  0  0  0  0  0  0  0
  -12.0832   33.4895    4.3075 C   0  0  0  0  0  0  0  0  0  0  0  0
  -15.2813   30.9369    6.7638 O   0  0  0  0  0  0  0  0  0  0  0  0
  -12.3902   31.1173    8.4211 O   0  0  0  0  0  0  0  0  0  0  0  0
  -11.0662   31.4618    6.2426 O   0  0  0  0  0  0  0  0  0  0  0  0
  -12.9672   31.3415    4.5261 O   0  0  0  0  0  0  0  0  0  0  0  0
  -12.9949   34.3164    3.6109 O   0  0  0  0  0  0  0  0  0  0  0  0
  1  2  1  0
  1 12  1  0
  1 26  1  1
  2  3  1  0
  2  9  1  6
  3  4  1  0
  3 10  1  1
  5  4  1  0
  4 11  1  6
  5  6  1  0
  5 12  1  1
  6 13  1  6
  8  7  1  6
  9  7  1  0
  7 14  2  0
 15 16  1  0
 24 15  1  6
 16 17  1  1
 16 18  1  0
 18 19  1  1
 20 18  1  0
 19 27  1  0
 20 21  1  1
 22 20  1  0
 30 21  1  1
 22 23  1  6
 24 22  1  0
 25 24  1  0
 25 26  1  6
 27 28  2  0
 29 27  1  6
 30 31  1  0
 30 39  1  0
 31 32  1  0
 31 36  1  6
 32 33  1  0
 32 37  1  1
 33 34  1  0
 33 38  1  6
 34 35  1  0
 34 39  1  6
 35 40  1  6
M  END
$$$$
