
     RDKit          3D

 40 42  0  0  0  0  0  0  0  0999 V2000
  -13.5766   26.7466    3.9935 C   0  0  1  0  0  0  0  0  0  0  0  0
  -14.4090   25.5384    3.6232 C   0  0  1  0  0  0  0  0  0  0  0  0
  -15.8148   25.6432    4.1745 C   0  0  2  0  0  0  0  0  0  0  0  0
  -16.0767   27.0823    4.6172 C   0  0  1  0  0  0  0  0  0  0  0  0
  -15.5197   27.9773    3.5552 C   0  0  1  0  0  0  0  0  0  0  0  0
  -15.9051   29.4219    3.9197 C   0  0  0  0  0  0  0  0  0  0  0  0
  -13.3125   24.6894    1.5257 C   0  0  0  0  0  0  0  0  0  0  0  0
  -13.3203   24.6374    0.0336 C   0  0  0  0  0  0  0  0  0  0  0  0
  -14.3923   25.3146    2.1910 N   0  0  0  0  0  0  0  0  0  0  0  0
  -15.9696   24.8503    5.2897 O   0  0  0  0  0  0  0  0  0  0  0  0
  -17.4432   27.2958    4.8088 O   0  0  0  0  0  0  0  0  0  0  0  0
  -14.1624   27.9305    3.5405 O   0  0  0  0  0  0  0  0  0  0  0  0
  -15.3116   29.7548    5.1345 O   0  0  0  0  0  0  0  0  0  0  0  0
  -12.3697   24.1899    2.1738 O   0  0  0  0  0  0  0  0  0  0  0  0
  -11.6561   26.2090    7.3514 O   0  0  0  0  0  0  0  0  0  0  0  0
  -11.1445   25.8736    8.6041 C   0  0  2  0  0  0  0  0  0  0  0  0
  -11.9968   26.2279    9.6370 O   0  0  0  0  0  0  0  0  0  0  0  0
   -9.8855   26.6895    8.7747 C   0  0  2  0  0  0  0  0  0  0  0  0
   -9.0534   26.2728    9.8359 N   0  0  0  0  0  0  0  0  0  0  0  0
  -10.3650   28.1372    8.9010 C   0  0  1  0  0  0  0  0  0  0  0  0
   -9.2785   28.8747    9.2750 O   0  0  0  0  0  0  0  0  0  0  0  0
  -10.8559   28.4776    7.4934 C   0  0  1  0  0  0  0  0  0  0  0  0
   -9.8759   28.3306    6.5441 O   0  0  0  0  0  0  0  0  0  0  0  0
  -12.0253   27.5091    7.2353 C   0  0  1  0  0  0  0  0  0  0  0  0
  -12.6373   27.7710    5.8901 C   0  0  0  0  0  0  0  0  0  0  0  0
  -13.3428   26.7670    5.3327 O   0  0  0  0  0  0  0  0  0  0  0  0
   -8.1538   25.1862    9.6520 C   0  0  0  0  0  0  0  0  0  0  0  0
   -8.5813   24.1079    9.1316 O   0  0  0  0  0  0  0  0  0  0  0  0
   -6.7283   25.2221   10.0304 C   0  0  0  0  0  0  0  0  0  0  0  0
   -8.6404   29.5488    8.2317 C   0  0  1  0  0  0  0  0  0  0  0  0
   -7.7160   30.6145    8.6294 C   0  0  1  0  0  0  0  0  0  0  0  0
   -6.2583   30.3176    8.5768 C   0  0  2  0  0  0  0  0  0  0  0  0
   -5.9334   28.9423    8.0401 C   0  0  2  0  0  0  0  0  0  0  0  0
   -6.9196   28.7817    6.8726 C   0  0  1  0  0  0  0  0  0  0  0  0
   -6.4742   27.5458    6.1290 C   0  0  0  0  0  0  0  0  0  0  0  0
   -7.9226   31.7650    7.8252 O   0  0  0  0  0  0  0  0  0  0  0  0
   -5.6315   30.4072    9.8365 O   0  0  0  0  0  0  0  0  0  0  0  0
   -6.2379   28.0304    9.0615 O   0  0  0  0  0  0  0  0  0  0  0  0
   -8.1364   28.5533    7.4193 O   0  0  0  0  0  0  0  0  0  0  0  0
   -5.6911   27.9978    5.0415 O   0  0  0  0  0  0  0  0  0  0  0  0
  1  2  1  0
  1 12  1  0
  1 26  1  1
  2  3  1  0
  2  9  1  6
  3  4  1  0
  3 10  1  1
  5  4  1  0
  4 11  1  6
  5  6  1  0
  5 12  1  1
  6 13  1  6
  8  7  1  6
  9  7  1  0
  7 14  2  0
 15 16  1  0
 24 15  1  6
 16 17  1  1
 16 18  1  0
 18 19  1  1
 20 18  1  0
 19 27  1  0
 20 21  1  6
 22 20  1  0
 30 21  1  1
 22 23  1  6
 24 22  1  0
 25 24  1  0
 25 26  1  6
 27 28  2  0
 29 27  1  6
 30 31  1  0
 30 39  1  0
 31 32  1  0
 31 36  1  6
 32 33  1  0
 32 37  1  1
 33 34  1  0
 33 38  1  1
 34 35  1  0
 34 39  1  1
 35 40  1  6
M  END
$$$$
