
     RDKit          3D

 40 42  0  0  0  0  0  0  0  0999 V2000
  -16.1994   27.3907   -1.4409 C   0  0  1  0  0  0  0  0  0  0  0  0
  -15.5165   27.9397   -2.6747 C   0  0  1  0  0  0  0  0  0  0  0  0
  -14.6113   26.9082   -3.3130 C   0  0  2  0  0  0  0  0  0  0  0  0
  -14.9377   25.5286   -2.7422 C   0  0  1  0  0  0  0  0  0  0  0  0
  -16.4289   25.4190   -2.6828 C   0  0  1  0  0  0  0  0  0  0  0  0
  -16.7694   23.9831   -2.2462 C   0  0  0  0  0  0  0  0  0  0  0  0
  -16.4811   29.8309   -4.0220 C   0  0  0  0  0  0  0  0  0  0  0  0
  -17.7868   30.5105   -4.2718 C   0  0  0  0  0  0  0  0  0  0  0  0
  -16.4853   28.4786   -3.6087 N   0  0  0  0  0  0  0  0  0  0  0  0
  -13.2899   27.1579   -3.0167 O   0  0  0  0  0  0  0  0  0  0  0  0
  -14.3767   24.5247   -3.5340 O   0  0  0  0  0  0  0  0  0  0  0  0
  -16.9412   26.2443   -1.7335 O   0  0  0  0  0  0  0  0  0  0  0  0
  -17.7181   24.0336   -1.2282 O   0  0  0  0  0  0  0  0  0  0  0  0
  -15.4056   30.4457   -4.1753 O   0  0  0  0  0  0  0  0  0  0  0  0
  -13.9353   29.3703    0.6585 O   0  0  0  0  0  0  0  0  0  0  0  0
  -12.8447   30.0635    1.1817 C   0  0  2  0  0  0  0  0  0  0  0  0
  -11.8102   29.2209    1.5538 O   0  0  0  0  0  0  0  0  0  0  0  0
  -13.3393   30.7337    2.4410 C   0  0  2  0  0  0  0  0  0  0  0  0
  -12.4810   31.7301    2.9535 N   0  0  0  0  0  0  0  0  0  0  0  0
  -13.6071   29.5891    3.4208 C   0  0  1  0  0  0  0  0  0  0  0  0
  -13.8438   30.1656    4.6357 O   0  0  0  0  0  0  0  0  0  0  0  0
  -14.8432   28.9009    2.8407 C   0  0  1  0  0  0  0  0  0  0  0  0
  -15.9132   29.7520    2.7234 O   0  0  0  0  0  0  0  0  0  0  0  0
  -14.3975   28.3798    1.4616 C   0  0  1  0  0  0  0  0  0  0  0  0
  -15.5158   27.6323    0.7959 C   0  0  0  0  0  0  0  0  0  0  0  0
  -15.2902   27.1778   -0.4527 O   0  0  0  0  0  0  0  0  0  0  0  0
  -12.2698   32.9332    2.2242 C   0  0  0  0  0  0  0  0  0  0  0  0
  -13.2662   33.6707    1.9418 O   0  0  0  0  0  0  0  0  0  0  0  0
  -10.9477   33.3965    1.7619 C   0  0  0  0  0  0  0  0  0  0  0  0
  -12.6983   30.4575    5.3791 C   0  0  1  0  0  0  0  0  0  0  0  0
  -12.6014   31.8264    5.8940 C   0  0  1  0  0  0  0  0  0  0  0  0
  -12.9067   32.0440    7.3345 C   0  0  2  0  0  0  0  0  0  0  0  0
  -13.2146   30.7733    8.0931 C   0  0  2  0  0  0  0  0  0  0  0  0
  -12.1825   29.7782    7.5399 C   0  0  1  0  0  0  0  0  0  0  0  0
  -12.2596   28.5680    8.4389 C   0  0  0  0  0  0  0  0  0  0  0  0
  -11.2963   32.3385    5.6763 O   0  0  0  0  0  0  0  0  0  0  0  0
  -14.0054   32.9028    7.5419 O   0  0  0  0  0  0  0  0  0  0  0  0
  -14.5102   30.3866    7.7196 O   0  0  0  0  0  0  0  0  0  0  0  0
  -12.5999   29.4336    6.2994 O   0  0  0  0  0  0  0  0  0  0  0  0
  -11.8987   27.4574    7.6410 O   0  0  0  0  0  0  0  0  0  0  0  0
  1  2  1  0
  1 12  1  0
  1 26  1  1
  2  3  1  0
  2  9  1  6
  3  4  1  0
  3 10  1  1
  5  4  1  0
  4 11  1  6
  5  6  1  0
  5 12  1  1
  6 13  1  6
  8  7  1  6
  9  7  1  0
  7 14  2  0
 15 16  1  0
 24 15  1  6
 16 17  1  1
 16 18  1  0
 18 19  1  1
 20 18  1  0
 19 27  1  0
 20 21  1  1
 22 20  1  0
 30 21  1  1
 22 23  1  6
 24 22  1  0
 25 24  1  0
 25 26  1  6
 27 28  2  0
 29 27  1  6
 30 31  1  0
 30 39  1  0
 31 32  1  0
 31 36  1  1
 32 33  1  0
 32 37  1  6
 33 34  1  0
 33 38  1  6
 34 35  1  0
 34 39  1  6
 35 40  1  6
M  END
$$$$
