
     RDKit          3D

 40 42  0  0  0  0  0  0  0  0999 V2000
  -16.6641   30.7937    3.4099 C   0  0  1  0  0  0  0  0  0  0  0  0
  -16.4090   32.2105    2.9011 C   0  0  1  0  0  0  0  0  0  0  0  0
  -17.6304   32.8547    2.3097 C   0  0  2  0  0  0  0  0  0  0  0  0
  -18.8178   31.9666    2.6044 C   0  0  1  0  0  0  0  0  0  0  0  0
  -18.7440   31.5768    4.0550 C   0  0  1  0  0  0  0  0  0  0  0  0
  -20.0589   30.9749    4.5394 C   0  0  0  0  0  0  0  0  0  0  0  0
  -14.7246   33.8993    3.7219 C   0  0  0  0  0  0  0  0  0  0  0  0
  -14.3057   34.1708    2.3216 C   0  0  0  0  0  0  0  0  0  0  0  0
  -15.8194   33.0263    3.9683 N   0  0  0  0  0  0  0  0  0  0  0  0
  -17.5414   32.9792    0.9099 O   0  0  0  0  0  0  0  0  0  0  0  0
  -19.9607   32.7793    2.4402 O   0  0  0  0  0  0  0  0  0  0  0  0
  -17.6783   30.7788    4.3598 O   0  0  0  0  0  0  0  0  0  0  0  0
  -20.5010   29.9629    3.6958 O   0  0  0  0  0  0  0  0  0  0  0  0
  -14.1098   34.4409    4.6590 O   0  0  0  0  0  0  0  0  0  0  0  0
  -14.8744   27.5009    3.5927 O   0  0  0  0  0  0  0  0  0  0  0  0
  -14.0840   26.4268    3.2749 C   0  0  2  0  0  0  0  0  0  0  0  0
  -12.7669   26.8005    3.1170 O   0  0  0  0  0  0  0  0  0  0  0  0
  -14.6570   25.8507    2.0065 C   0  0  2  0  0  0  0  0  0  0  0  0
  -14.1421   24.5284    1.7201 N   0  0  0  0  0  0  0  0  0  0  0  0
  -14.4189   26.8245    0.8982 C   0  0  1  0  0  0  0  0  0  0  0  0
  -15.3149   26.5795   -0.0915 O   0  0  0  0  0  0  0  0  0  0  0  0
  -14.2369   28.1875    1.3659 C   0  0  1  0  0  0  0  0  0  0  0  0
  -14.6701   29.1803    0.4769 O   0  0  0  0  0  0  0  0  0  0  0  0
  -14.9532   28.4834    2.6665 C   0  0  1  0  0  0  0  0  0  0  0  0
  -16.3967   28.7314    2.3038 C   0  0  0  0  0  0  0  0  0  0  0  0
  -16.8561   29.9907    2.3516 O   0  0  0  0  0  0  0  0  0  0  0  0
  -14.8911   23.5256    1.0419 C   0  0  0  0  0  0  0  0  0  0  0  0
  -14.3990   23.0419   -0.0103 O   0  0  0  0  0  0  0  0  0  0  0  0
  -16.2133   23.0671    1.5642 C   0  0  0  0  0  0  0  0  0  0  0  0
  -14.9031   26.6783   -1.3851 C   0  0  1  0  0  0  0  0  0  0  0  0
  -14.7000   25.3367   -2.0600 C   0  0  1  0  0  0  0  0  0  0  0  0
  -15.4784   25.3072   -3.3807 C   0  0  2  0  0  0  0  0  0  0  0  0
  -15.0421   26.4958   -4.2057 C   0  0  2  0  0  0  0  0  0  0  0  0
  -15.0414   27.7513   -3.3639 C   0  0  1  0  0  0  0  0  0  0  0  0
  -15.6159   28.9322   -4.1134 C   0  0  0  0  0  0  0  0  0  0  0  0
  -13.3667   25.1096   -2.4054 O   0  0  0  0  0  0  0  0  0  0  0  0
  -16.8162   25.4722   -3.0653 O   0  0  0  0  0  0  0  0  0  0  0  0
  -15.8860   26.6641   -5.2870 O   0  0  0  0  0  0  0  0  0  0  0  0
  -15.6974   27.5362   -2.1611 O   0  0  0  0  0  0  0  0  0  0  0  0
  -15.5950   30.0334   -3.2915 O   0  0  0  0  0  0  0  0  0  0  0  0
  1  2  1  0
  1 12  1  0
  1 26  1  6
  2  3  1  0
  2  9  1  1
  3  4  1  0
  3 10  1  6
  5  4  1  0
  4 11  1  1
  5  6  1  6
 12  5  1  0
  6 13  1  0
  7  8  1  0
  9  7  1  0
  7 14  2  0
 15 16  1  0
 24 15  1  0
 16 17  1  6
 16 18  1  0
 18 19  1  6
 20 18  1  0
 19 27  1  0
 20 21  1  6
 22 20  1  0
 30 21  1  1
 22 23  1  6
 24 22  1  0
 24 25  1  6
 25 26  1  0
 27 28  2  0
 27 29  1  0
 30 31  1  0
 30 39  1  0
 31 32  1  0
 31 36  1  6
 32 33  1  0
 32 37  1  1
 33 34  1  0
 33 38  1  6
 34 35  1  6
 34 39  1  0
 35 40  1  0
M  END
$$$$
