
     RDKit          3D

 40 42  0  0  0  0  0  0  0  0999 V2000
  -11.7587   28.9426    5.2985 C   0  0  1  0  0  0  0  0  0  0  0  0
  -12.4767   28.3632    6.4979 C   0  0  1  0  0  0  0  0  0  0  0  0
  -11.9270   27.0029    6.8697 C   0  0  2  0  0  0  0  0  0  0  0  0
  -10.5885   26.7898    6.1635 C   0  0  1  0  0  0  0  0  0  0  0  0
   -9.8210   28.0690    6.2807 C   0  0  1  0  0  0  0  0  0  0  0  0
   -8.4175   27.8203    5.7005 C   0  0  0  0  0  0  0  0  0  0  0  0
  -13.5936   29.5429    8.4171 C   0  0  0  0  0  0  0  0  0  0  0  0
  -13.6126   30.7693    9.2684 C   0  0  0  0  0  0  0  0  0  0  0  0
  -12.4587   29.2901    7.6123 N   0  0  0  0  0  0  0  0  0  0  0  0
  -12.7652   25.9968    6.4438 O   0  0  0  0  0  0  0  0  0  0  0  0
   -9.8979   25.7186    6.7338 O   0  0  0  0  0  0  0  0  0  0  0  0
  -10.3847   29.0468    5.5251 O   0  0  0  0  0  0  0  0  0  0  0  0
   -7.9326   29.0108    5.1653 O   0  0  0  0  0  0  0  0  0  0  0  0
  -14.5621   28.7554    8.4160 O   0  0  0  0  0  0  0  0  0  0  0  0
  -13.9991   30.3211    2.9791 O   0  0  0  0  0  0  0  0  0  0  0  0
  -15.3190   30.6242    2.6480 C   0  0  2  0  0  0  0  0  0  0  0  0
  -16.2033   29.6288    3.0303 O   0  0  0  0  0  0  0  0  0  0  0  0
  -15.3665   30.6981    1.1407 C   0  0  2  0  0  0  0  0  0  0  0  0
  -16.5340   31.2940    0.6171 N   0  0  0  0  0  0  0  0  0  0  0  0
  -15.1435   29.2606    0.6657 C   0  0  1  0  0  0  0  0  0  0  0  0
  -15.3979   29.2513   -0.6758 O   0  0  0  0  0  0  0  0  0  0  0  0
  -13.6727   28.9983    0.9915 C   0  0  1  0  0  0  0  0  0  0  0  0
  -12.8302   29.8904    0.3772 O   0  0  0  0  0  0  0  0  0  0  0  0
  -13.5784   29.1144    2.5244 C   0  0  1  0  0  0  0  0  0  0  0  0
  -12.1798   28.8285    2.9879 C   0  0  0  0  0  0  0  0  0  0  0  0
  -12.0434   28.2198    4.1826 O   0  0  0  0  0  0  0  0  0  0  0  0
  -16.4357   32.4411   -0.2185 C   0  0  0  0  0  0  0  0  0  0  0  0
  -15.2893   32.9315   -0.4668 O   0  0  0  0  0  0  0  0  0  0  0  0
  -17.5950   33.1174   -0.8311 C   0  0  0  0  0  0  0  0  0  0  0  0
  -16.2751   28.2506   -1.0990 C   0  0  1  0  0  0  0  0  0  0  0  0
  -17.2845   28.6578   -2.0806 C   0  0  1  0  0  0  0  0  0  0  0  0
  -17.0578   28.2757   -3.5013 C   0  0  2  0  0  0  0  0  0  0  0  0
  -15.8171   27.4401   -3.7193 C   0  0  2  0  0  0  0  0  0  0  0  0
  -15.8352   26.4714   -2.5265 C   0  0  1  0  0  0  0  0  0  0  0  0
  -14.7739   25.4396   -2.8224 C   0  0  0  0  0  0  0  0  0  0  0  0
  -18.5539   28.1365   -1.7203 O   0  0  0  0  0  0  0  0  0  0  0  0
  -16.9395   29.3881   -4.3594 O   0  0  0  0  0  0  0  0  0  0  0  0
  -14.7231   28.3122   -3.6196 O   0  0  0  0  0  0  0  0  0  0  0  0
  -15.4647   27.1862   -1.4386 O   0  0  0  0  0  0  0  0  0  0  0  0
  -15.1647   24.2624   -2.1429 O   0  0  0  0  0  0  0  0  0  0  0  0
  1  2  1  0
  1 12  1  0
  1 26  1  6
  2  3  1  0
  2  9  1  1
  3  4  1  0
  3 10  1  6
  5  4  1  0
  4 11  1  1
  5  6  1  0
  5 12  1  6
  6 13  1  6
  8  7  1  6
  9  7  1  0
  7 14  2  0
 15 16  1  0
 24 15  1  6
 16 17  1  6
 16 18  1  0
 18 19  1  1
 20 18  1  0
 19 27  1  0
 20 21  1  6
 22 20  1  0
 30 21  1  6
 22 23  1  6
 24 22  1  0
 25 24  1  0
 25 26  1  6
 27 28  2  0
 29 27  1  6
 30 31  1  0
 30 39  1  0
 31 32  1  0
 31 36  1  1
 32 33  1  0
 32 37  1  6
 33 34  1  0
 33 38  1  1
 34 35  1  0
 34 39  1  1
 35 40  1  6
M  END
$$$$
