
     RDKit          3D

 40 42  0  0  0  0  0  0  0  0999 V2000
  -15.4741   29.7384    2.8688 C   0  0  1  0  0  0  0  0  0  0  0  0
  -15.5575   31.2271    3.1978 C   0  0  1  0  0  0  0  0  0  0  0  0
  -16.8162   31.6011    3.9275 C   0  0  2  0  0  0  0  0  0  0  0  0
  -17.5295   30.3260    4.3154 C   0  0  1  0  0  0  0  0  0  0  0  0
  -16.5075   29.3974    4.9111 C   0  0  1  0  0  0  0  0  0  0  0  0
  -17.1688   28.2346    5.6437 C   0  0  0  0  0  0  0  0  0  0  0  0
  -13.5048   32.6741    3.4335 C   0  0  0  0  0  0  0  0  0  0  0  0
  -12.0935   32.7410    3.8959 C   0  0  0  0  0  0  0  0  0  0  0  0
  -14.3548   31.6462    3.9258 N   0  0  0  0  0  0  0  0  0  0  0  0
  -17.6993   32.3425    3.1193 O   0  0  0  0  0  0  0  0  0  0  0  0
  -18.4303   30.6821    5.3428 O   0  0  0  0  0  0  0  0  0  0  0  0
  -15.5663   28.9660    4.0202 O   0  0  0  0  0  0  0  0  0  0  0  0
  -18.2805   27.7617    4.9568 O   0  0  0  0  0  0  0  0  0  0  0  0
  -13.9219   33.5200    2.6210 O   0  0  0  0  0  0  0  0  0  0  0  0
  -16.1728   30.9445   -0.9546 O   0  0  0  0  0  0  0  0  0  0  0  0
  -15.9640   30.9338   -2.3095 C   0  0  2  0  0  0  0  0  0  0  0  0
  -17.1542   30.9819   -3.0025 O   0  0  0  0  0  0  0  0  0  0  0  0
  -15.1982   29.6699   -2.6016 C   0  0  2  0  0  0  0  0  0  0  0  0
  -14.6185   29.6710   -3.9280 N   0  0  0  0  0  0  0  0  0  0  0  0
  -16.1028   28.5054   -2.3588 C   0  0  1  0  0  0  0  0  0  0  0  0
  -15.3396   27.4052   -2.1363 O   0  0  0  0  0  0  0  0  0  0  0  0
  -17.1900   28.8087   -1.4446 C   0  0  1  0  0  0  0  0  0  0  0  0
  -17.6330   27.7260   -0.6733 O   0  0  0  0  0  0  0  0  0  0  0  0
  -16.8565   29.8949   -0.4442 C   0  0  1  0  0  0  0  0  0  0  0  0
  -16.0431   29.2318    0.6399 C   0  0  0  0  0  0  0  0  0  0  0  0
  -16.3801   29.4625    1.9176 O   0  0  0  0  0  0  0  0  0  0  0  0
  -14.7957   30.7325   -4.8600 C   0  0  0  0  0  0  0  0  0  0  0  0
  -13.8793   31.5902   -4.9482 O   0  0  0  0  0  0  0  0  0  0  0  0
  -16.0271   30.8210   -5.7008 C   0  0  0  0  0  0  0  0  0  0  0  0
  -15.5494   26.2987   -2.9008 C   0  0  1  0  0  0  0  0  0  0  0  0
  -14.5286   26.1249   -4.0073 C   0  0  1  0  0  0  0  0  0  0  0  0
  -13.9362   24.7124   -3.9372 C   0  0  2  0  0  0  0  0  0  0  0  0
  -15.0792   23.7248   -3.9788 C   0  0  2  0  0  0  0  0  0  0  0  0
  -16.1642   24.1317   -3.0081 C   0  0  1  0  0  0  0  0  0  0  0  0
  -16.7162   22.9450   -2.2507 C   0  0  0  0  0  0  0  0  0  0  0  0
  -15.0959   26.2310   -5.2782 O   0  0  0  0  0  0  0  0  0  0  0  0
  -13.3134   24.5957   -2.7063 O   0  0  0  0  0  0  0  0  0  0  0  0
  -14.6285   22.4568   -3.6642 O   0  0  0  0  0  0  0  0  0  0  0  0
  -15.7100   25.1233   -2.1515 O   0  0  0  0  0  0  0  0  0  0  0  0
  -17.7377   23.3728   -1.4371 O   0  0  0  0  0  0  0  0  0  0  0  0
  1  2  1  0
  1 12  1  0
  1 26  1  6
  2  3  1  0
  2  9  1  1
  3  4  1  0
  3 10  1  6
  5  4  1  0
  4 11  1  1
  5  6  1  6
 12  5  1  0
  6 13  1  0
  7  8  1  0
  9  7  1  0
  7 14  2  0
 15 16  1  0
 24 15  1  0
 16 17  1  6
 16 18  1  0
 18 19  1  6
 20 18  1  0
 19 27  1  0
 20 21  1  1
 22 20  1  0
 30 21  1  1
 22 23  1  1
 24 22  1  0
 24 25  1  1
 25 26  1  0
 27 28  2  0
 27 29  1  0
 30 31  1  0
 30 39  1  0
 31 32  1  0
 31 36  1  6
 32 33  1  0
 32 37  1  1
 33 34  1  0
 33 38  1  1
 34 35  1  1
 34 39  1  0
 35 40  1  0
M  END
$$$$
