
     RDKit          3D

 40 42  0  0  0  0  0  0  0  0999 V2000
  -15.4745   26.9979   -2.0740 C   0  0  1  0  0  0  0  0  0  0  0  0
  -14.8783   27.9437   -3.1139 C   0  0  1  0  0  0  0  0  0  0  0  0
  -13.7150   27.3488   -3.8553 C   0  0  2  0  0  0  0  0  0  0  0  0
  -13.6267   25.8842   -3.4911 C   0  0  1  0  0  0  0  0  0  0  0  0
  -15.0127   25.3085   -3.5865 C   0  0  1  0  0  0  0  0  0  0  0  0
  -14.9861   23.7836   -3.5783 C   0  0  0  0  0  0  0  0  0  0  0  0
  -16.2883   29.7850   -4.1060 C   0  0  0  0  0  0  0  0  0  0  0  0
  -17.5279   30.1756   -4.8277 C   0  0  0  0  0  0  0  0  0  0  0  0
  -15.9290   28.4118   -4.0244 N   0  0  0  0  0  0  0  0  0  0  0  0
  -12.4916   27.9427   -3.4902 O   0  0  0  0  0  0  0  0  0  0  0  0
  -12.8449   25.2798   -4.4996 O   0  0  0  0  0  0  0  0  0  0  0  0
  -15.8832   25.8055   -2.6587 O   0  0  0  0  0  0  0  0  0  0  0  0
  -15.4653   23.2690   -2.3796 O   0  0  0  0  0  0  0  0  0  0  0  0
  -15.5824   30.6670   -3.5832 O   0  0  0  0  0  0  0  0  0  0  0  0
  -13.0123   27.4396    1.6941 O   0  0  0  0  0  0  0  0  0  0  0  0
  -12.9146   27.9930    2.9447 C   0  0  2  0  0  0  0  0  0  0  0  0
  -13.1386   27.0548    3.9290 O   0  0  0  0  0  0  0  0  0  0  0  0
  -13.9327   29.1024    2.9883 C   0  0  2  0  0  0  0  0  0  0  0  0
  -13.7318   29.9906    4.1135 N   0  0  0  0  0  0  0  0  0  0  0  0
  -15.2960   28.4908    2.9612 C   0  0  1  0  0  0  0  0  0  0  0  0
  -16.1775   29.4210    2.5141 O   0  0  0  0  0  0  0  0  0  0  0  0
  -15.3131   27.1614    2.3762 C   0  0  1  0  0  0  0  0  0  0  0  0
  -16.5030   26.8198    1.7197 O   0  0  0  0  0  0  0  0  0  0  0  0
  -14.2199   26.9342    1.3539 C   0  0  1  0  0  0  0  0  0  0  0  0
  -14.7013   27.5741    0.0751 C   0  0  0  0  0  0  0  0  0  0  0  0
  -14.5999   26.8723   -1.0635 O   0  0  0  0  0  0  0  0  0  0  0  0
  -12.4655   30.5398    4.4622 C   0  0  0  0  0  0  0  0  0  0  0  0
  -12.2101   31.7091    4.0740 O   0  0  0  0  0  0  0  0  0  0  0  0
  -11.4785   29.7525    5.2604 C   0  0  0  0  0  0  0  0  0  0  0  0
  -17.1739   29.8304    3.3461 C   0  0  1  0  0  0  0  0  0  0  0  0
  -17.2520   31.3358    3.5023 C   0  0  1  0  0  0  0  0  0  0  0  0
  -18.6847   31.8040    3.2209 C   0  0  2  0  0  0  0  0  0  0  0  0
  -19.6144   31.0313    4.1276 C   0  0  2  0  0  0  0  0  0  0  0  0
  -19.2861   29.5562    4.0872 C   0  0  1  0  0  0  0  0  0  0  0  0
  -20.5334   28.7030    4.0347 C   0  0  0  0  0  0  0  0  0  0  0  0
  -16.9702   31.7525    4.8043 O   0  0  0  0  0  0  0  0  0  0  0  0
  -18.9743   31.4557    1.9127 O   0  0  0  0  0  0  0  0  0  0  0  0
  -20.9278   31.2238    3.7435 O   0  0  0  0  0  0  0  0  0  0  0  0
  -18.4244   29.2736    3.0379 O   0  0  0  0  0  0  0  0  0  0  0  0
  -20.1657   27.3792    4.0048 O   0  0  0  0  0  0  0  0  0  0  0  0
  1  2  1  0
  1 12  1  0
  1 26  1  1
  2  3  1  0
  2  9  1  6
  3  4  1  0
  3 10  1  1
  5  4  1  0
  4 11  1  6
  5  6  1  1
 12  5  1  0
  6 13  1  0
  7  8  1  0
  9  7  1  0
  7 14  2  0
 15 16  1  0
 24 15  1  0
 16 17  1  1
 16 18  1  0
 18 19  1  1
 20 18  1  0
 19 27  1  0
 20 21  1  6
 22 20  1  0
 30 21  1  6
 22 23  1  6
 24 22  1  0
 24 25  1  6
 25 26  1  0
 27 28  2  0
 27 29  1  0
 30 31  1  0
 30 39  1  0
 31 32  1  0
 31 36  1  1
 32 33  1  0
 32 37  1  6
 33 34  1  0
 33 38  1  6
 34 35  1  6
 34 39  1  0
 35 40  1  0
M  END
$$$$
