
     RDKit          3D

 40 42  0  0  0  0  0  0  0  0999 V2000
  -16.1231    6.8136  -11.2967 C   0  0  1  0  0  0  0  0  0  0  0  0
  -16.6720    7.7283  -12.3891 C   0  0  1  0  0  0  0  0  0  0  0  0
  -16.1413    9.1313  -12.3067 C   0  0  2  0  0  0  0  0  0  0  0  0
  -15.0336    9.1536  -11.2782 C   0  0  1  0  0  0  0  0  0  0  0  0
  -14.1383    7.9762  -11.5499 C   0  0  1  0  0  0  0  0  0  0  0  0
  -12.8150    8.0960  -10.8011 C   0  0  0  0  0  0  0  0  0  0  0  0
  -17.4877    6.9744  -14.6539 C   0  0  0  0  0  0  0  0  0  0  0  0
  -17.2528    6.1720  -15.8831 C   0  0  0  0  0  0  0  0  0  0  0  0
  -16.4380    7.1288  -13.7074 N   0  0  0  0  0  0  0  0  0  0  0  0
  -17.1226   10.0471  -11.8810 O   0  0  0  0  0  0  0  0  0  0  0  0
  -14.2871   10.3239  -11.5368 O   0  0  0  0  0  0  0  0  0  0  0  0
  -14.7348    6.7665  -11.3351 O   0  0  0  0  0  0  0  0  0  0  0  0
  -12.3167    6.8504  -10.4384 O   0  0  0  0  0  0  0  0  0  0  0  0
  -18.6013    7.4999  -14.4713 O   0  0  0  0  0  0  0  0  0  0  0  0
  -18.5787    4.4592   -9.2602 O   0  0  0  0  0  0  0  0  0  0  0  0
  -19.4637    3.9897   -8.3243 C   0  0  2  0  0  0  0  0  0  0  0  0
  -20.7653    4.2780   -8.6735 O   0  0  0  0  0  0  0  0  0  0  0  0
  -19.0768    4.6423   -7.0230 C   0  0  2  0  0  0  0  0  0  0  0  0
  -19.6999    4.0068   -5.8813 N   0  0  0  0  0  0  0  0  0  0  0  0
  -19.3824    6.1019   -7.1198 C   0  0  1  0  0  0  0  0  0  0  0  0
  -18.6232    6.7632   -6.2095 O   0  0  0  0  0  0  0  0  0  0  0  0
  -19.4269    6.5857   -8.4887 C   0  0  1  0  0  0  0  0  0  0  0  0
  -19.0404    7.9222   -8.6561 O   0  0  0  0  0  0  0  0  0  0  0  0
  -18.5486    5.7996   -9.4388 C   0  0  1  0  0  0  0  0  0  0  0  0
  -17.1445    6.3125   -9.2342 C   0  0  0  0  0  0  0  0  0  0  0  0
  -16.6531    7.1896  -10.1222 O   0  0  0  0  0  0  0  0  0  0  0  0
  -18.9766    3.5721   -4.7347 C   0  0  0  0  0  0  0  0  0  0  0  0
  -17.7211    3.6450   -4.7750 O   0  0  0  0  0  0  0  0  0  0  0  0
  -19.6869    3.0490   -3.5293 C   0  0  0  0  0  0  0  0  0  0  0  0
  -19.2427    7.3794   -5.1659 C   0  0  1  0  0  0  0  0  0  0  0  0
  -18.9054    6.7735   -3.8184 C   0  0  1  0  0  0  0  0  0  0  0  0
  -18.4359    7.8791   -2.8653 C   0  0  2  0  0  0  0  0  0  0  0  0
  -19.5072    8.9440   -2.8227 C   0  0  2  0  0  0  0  0  0  0  0  0
  -19.9536    9.3003   -4.2222 C   0  0  1  0  0  0  0  0  0  0  0  0
  -20.1310   10.7921   -4.3940 C   0  0  0  0  0  0  0  0  0  0  0  0
  -20.0149    6.1928   -3.2016 O   0  0  0  0  0  0  0  0  0  0  0  0
  -17.2984    8.4374   -3.4229 O   0  0  0  0  0  0  0  0  0  0  0  0
  -19.0333   10.0752   -2.1860 O   0  0  0  0  0  0  0  0  0  0  0  0
  -19.0829    8.7734   -5.1643 O   0  0  0  0  0  0  0  0  0  0  0  0
  -20.5312   11.0467   -5.6839 O   0  0  0  0  0  0  0  0  0  0  0  0
  1  2  1  0
  1 12  1  0
  1 26  1  1
  2  3  1  0
  2  9  1  6
  3  4  1  0
  3 10  1  1
  5  4  1  0
  4 11  1  6
  5  6  1  1
 12  5  1  0
  6 13  1  0
  7  8  1  0
  9  7  1  0
  7 14  2  0
 15 16  1  0
 24 15  1  0
 16 17  1  6
 16 18  1  0
 18 19  1  1
 20 18  1  0
 19 27  1  0
 20 21  1  1
 22 20  1  0
 30 21  1  6
 22 23  1  1
 24 22  1  0
 24 25  1  1
 25 26  1  0
 27 28  2  0
 27 29  1  0
 30 31  1  0
 30 39  1  0
 31 32  1  0
 31 36  1  1
 32 33  1  0
 32 37  1  6
 33 34  1  0
 33 38  1  6
 34 35  1  1
 34 39  1  0
 35 40  1  0
M  END
$$$$
