
     RDKit          3D

 40 42  0  0  0  0  0  0  0  0999 V2000
  -16.4409   32.0204    0.5999 C   0  0  1  0  0  0  0  0  0  0  0  0
  -16.7720   32.5299    1.9858 C   0  0  1  0  0  0  0  0  0  0  0  0
  -16.3503   33.9729    2.1617 C   0  0  2  0  0  0  0  0  0  0  0  0
  -16.0581   34.5834    0.7914 C   0  0  1  0  0  0  0  0  0  0  0  0
  -17.1444   34.1301   -0.1325 C   0  0  1  0  0  0  0  0  0  0  0  0
  -16.9406   34.8539   -1.4752 C   0  0  0  0  0  0  0  0  0  0  0  0
  -18.6138   31.7856    3.5272 C   0  0  0  0  0  0  0  0  0  0  0  0
  -19.8976   31.0240    3.5614 C   0  0  0  0  0  0  0  0  0  0  0  0
  -18.1728   32.3218    2.2953 N   0  0  0  0  0  0  0  0  0  0  0  0
  -15.1868   34.0632    2.8928 O   0  0  0  0  0  0  0  0  0  0  0  0
  -15.9999   35.9759    0.8770 O   0  0  0  0  0  0  0  0  0  0  0  0
  -17.0424   32.8004   -0.3898 O   0  0  0  0  0  0  0  0  0  0  0  0
  -17.0240   33.9230   -2.5073 O   0  0  0  0  0  0  0  0  0  0  0  0
  -17.9424   31.9458    4.5673 O   0  0  0  0  0  0  0  0  0  0  0  0
  -13.6460   30.3267    1.9101 O   0  0  0  0  0  0  0  0  0  0  0  0
  -12.9534   29.4489    2.7429 C   0  0  2  0  0  0  0  0  0  0  0  0
  -11.7700   29.0038    2.1769 O   0  0  0  0  0  0  0  0  0  0  0  0
  -13.8423   28.2397    2.9088 C   0  0  2  0  0  0  0  0  0  0  0  0
  -13.4657   27.3717    3.9562 N   0  0  0  0  0  0  0  0  0  0  0  0
  -13.8630   27.5705    1.5328 C   0  0  1  0  0  0  0  0  0  0  0  0
  -14.4740   26.3607    1.6987 O   0  0  0  0  0  0  0  0  0  0  0  0
  -14.6830   28.5357    0.6758 C   0  0  1  0  0  0  0  0  0  0  0  0
  -15.9434   28.7438    1.1769 O   0  0  0  0  0  0  0  0  0  0  0  0
  -13.8704   29.8440    0.6626 C   0  0  1  0  0  0  0  0  0  0  0  0
  -14.5473   30.8742   -0.1936 C   0  0  0  0  0  0  0  0  0  0  0  0
  -15.0938   31.9319    0.4383 O   0  0  0  0  0  0  0  0  0  0  0  0
  -14.3865   26.4043    4.4463 C   0  0  0  0  0  0  0  0  0  0  0  0
  -15.6194   26.5191    4.1579 O   0  0  0  0  0  0  0  0  0  0  0  0
  -14.0043   25.2516    5.2840 C   0  0  0  0  0  0  0  0  0  0  0  0
  -13.7580   25.2696    1.2020 C   0  0  1  0  0  0  0  0  0  0  0  0
  -13.9884   23.9908    1.8803 C   0  0  1  0  0  0  0  0  0  0  0  0
  -14.8705   23.0009    1.2037 C   0  0  2  0  0  0  0  0  0  0  0  0
  -15.3588   23.4458   -0.1559 C   0  0  2  0  0  0  0  0  0  0  0  0
  -14.1153   24.1032   -0.7750 C   0  0  1  0  0  0  0  0  0  0  0  0
  -14.4557   24.3333   -2.2276 C   0  0  0  0  0  0  0  0  0  0  0  0
  -12.7531   23.3346    2.1176 O   0  0  0  0  0  0  0  0  0  0  0  0
  -16.0227   22.6863    1.9527 O   0  0  0  0  0  0  0  0  0  0  0  0
  -16.3545   24.4076    0.0700 O   0  0  0  0  0  0  0  0  0  0  0  0
  -13.9621   25.3004   -0.1627 O   0  0  0  0  0  0  0  0  0  0  0  0
  -13.4138   25.1294   -2.7578 O   0  0  0  0  0  0  0  0  0  0  0  0
  1  2  1  0
  1 12  1  0
  1 26  1  6
  2  3  1  0
  2  9  1  6
  3  4  1  0
  3 10  1  1
  5  4  1  0
  4 11  1  1
  5  6  1  0
  5 12  1  6
  6 13  1  6
  8  7  1  6
  9  7  1  0
  7 14  2  0
 15 16  1  0
 24 15  1  1
 16 17  1  6
 16 18  1  0
 18 19  1  1
 20 18  1  0
 19 27  1  0
 20 21  1  1
 22 20  1  0
 30 21  1  1
 22 23  1  1
 24 22  1  0
 25 24  1  0
 25 26  1  6
 27 28  2  0
 29 27  1  6
 30 31  1  0
 30 39  1  0
 31 32  1  0
 31 36  1  6
 32 33  1  0
 32 37  1  1
 33 34  1  0
 33 38  1  1
 34 35  1  0
 34 39  1  1
 35 40  1  6
M  END
$$$$
