
     RDKit          3D

 40 42  0  0  0  0  0  0  0  0999 V2000
  -13.0831   29.8492    3.9519 C   0  0  1  0  0  0  0  0  0  0  0  0
  -13.8462   30.7280    4.9191 C   0  0  1  0  0  0  0  0  0  0  0  0
  -14.7338   29.9088    5.8311 C   0  0  2  0  0  0  0  0  0  0  0  0
  -14.3208   28.4395    5.7501 C   0  0  1  0  0  0  0  0  0  0  0  0
  -12.8251   28.4014    5.7740 C   0  0  1  0  0  0  0  0  0  0  0  0
  -12.4017   26.9232    5.8386 C   0  0  0  0  0  0  0  0  0  0  0  0
  -12.8965   32.9932    5.4570 C   0  0  0  0  0  0  0  0  0  0  0  0
  -11.5638   33.6635    5.3952 C   0  0  0  0  0  0  0  0  0  0  0  0
  -12.9465   31.5940    5.6553 N   0  0  0  0  0  0  0  0  0  0  0  0
  -16.0498   29.9738    5.4306 O   0  0  0  0  0  0  0  0  0  0  0  0
  -14.8732   27.7155    6.8085 O   0  0  0  0  0  0  0  0  0  0  0  0
  -12.3060   28.9030    4.6234 O   0  0  0  0  0  0  0  0  0  0  0  0
  -12.7284   26.3068    4.6335 O   0  0  0  0  0  0  0  0  0  0  0  0
  -13.9472   33.6563    5.3358 O   0  0  0  0  0  0  0  0  0  0  0  0
  -15.5544   29.6144    0.7186 O   0  0  0  0  0  0  0  0  0  0  0  0
  -16.6175   29.2901   -0.1232 C   0  0  2  0  0  0  0  0  0  0  0  0
  -17.1986   28.0752    0.2010 O   0  0  0  0  0  0  0  0  0  0  0  0
  -16.0271   29.1393   -1.5046 C   0  0  2  0  0  0  0  0  0  0  0  0
  -16.9748   29.1167   -2.5504 N   0  0  0  0  0  0  0  0  0  0  0  0
  -15.1620   27.8792   -1.4311 C   0  0  1  0  0  0  0  0  0  0  0  0
  -14.7899   27.5886   -2.7123 O   0  0  0  0  0  0  0  0  0  0  0  0
  -13.9835   28.3026   -0.5536 C   0  0  1  0  0  0  0  0  0  0  0  0
  -13.3027   29.3769   -1.0689 O   0  0  0  0  0  0  0  0  0  0  0  0
  -14.6081   28.6471    0.8115 C   0  0  1  0  0  0  0  0  0  0  0  0
  -13.5422   29.0372    1.7935 C   0  0  0  0  0  0  0  0  0  0  0  0
  -13.9352   29.2770    3.0602 O   0  0  0  0  0  0  0  0  0  0  0  0
  -17.8329   30.2320   -2.7591 C   0  0  0  0  0  0  0  0  0  0  0  0
  -17.5326   31.3522   -2.2380 O   0  0  0  0  0  0  0  0  0  0  0  0
  -19.0742   30.1805   -3.5546 C   0  0  0  0  0  0  0  0  0  0  0  0
  -15.6619   26.7401   -3.3977 C   0  0  1  0  0  0  0  0  0  0  0  0
  -15.5896   26.7946   -4.8606 C   0  0  1  0  0  0  0  0  0  0  0  0
  -14.8704   25.6928   -5.5566 C   0  0  2  0  0  0  0  0  0  0  0  0
  -14.3638   24.6117   -4.6295 C   0  0  2  0  0  0  0  0  0  0  0  0
  -15.5225   24.4335   -3.6358 C   0  0  1  0  0  0  0  0  0  0  0  0
  -15.1945   23.1902   -2.8449 C   0  0  0  0  0  0  0  0  0  0  0  0
  -16.8960   26.8356   -5.4126 O   0  0  0  0  0  0  0  0  0  0  0  0
  -13.7515   26.1404   -6.2884 O   0  0  0  0  0  0  0  0  0  0  0  0
  -13.2401   25.1378   -3.9753 O   0  0  0  0  0  0  0  0  0  0  0  0
  -15.4935   25.5037   -2.8079 O   0  0  0  0  0  0  0  0  0  0  0  0
  -14.8392   23.6276   -1.5477 O   0  0  0  0  0  0  0  0  0  0  0  0
  1  2  1  0
  1 12  1  0
  1 26  1  6
  2  3  1  0
  2  9  1  1
  3  4  1  0
  3 10  1  6
  5  4  1  0
  4 11  1  1
  5  6  1  0
  5 12  1  6
  6 13  1  6
  8  7  1  6
  9  7  1  0
  7 14  2  0
 15 16  1  0
 24 15  1  6
 16 17  1  1
 16 18  1  0
 18 19  1  6
 20 18  1  0
 19 27  1  0
 20 21  1  6
 22 20  1  0
 30 21  1  1
 22 23  1  6
 24 22  1  0
 25 24  1  0
 25 26  1  6
 27 28  2  0
 29 27  1  6
 30 31  1  0
 30 39  1  0
 31 32  1  0
 31 36  1  6
 32 33  1  0
 32 37  1  1
 33 34  1  0
 33 38  1  1
 34 35  1  0
 34 39  1  1
 35 40  1  6
M  END
$$$$
