
     RDKit          3D

 40 42  0  0  0  0  0  0  0  0999 V2000
  -14.4996   30.3017    0.4145 C   0  0  1  0  0  0  0  0  0  0  0  0
  -14.0111   31.1268   -0.7562 C   0  0  1  0  0  0  0  0  0  0  0  0
  -13.8909   30.2908   -2.0122 C   0  0  2  0  0  0  0  0  0  0  0  0
  -14.6388   28.9728   -1.8142 C   0  0  1  0  0  0  0  0  0  0  0  0
  -15.9345   29.2995   -1.1408 C   0  0  1  0  0  0  0  0  0  0  0  0
  -16.7570   28.0008   -1.0671 C   0  0  0  0  0  0  0  0  0  0  0  0
  -14.3544   33.6173   -0.8028 C   0  0  0  0  0  0  0  0  0  0  0  0
  -15.3173   34.7547   -0.8934 C   0  0  0  0  0  0  0  0  0  0  0  0
  -14.8427   32.2983   -0.9495 N   0  0  0  0  0  0  0  0  0  0  0  0
  -12.5770   29.9671   -2.2677 O   0  0  0  0  0  0  0  0  0  0  0  0
  -14.8396   28.3337   -3.0392 O   0  0  0  0  0  0  0  0  0  0  0  0
  -15.7305   29.7020    0.1403 O   0  0  0  0  0  0  0  0  0  0  0  0
  -16.0366   27.0502   -0.3485 O   0  0  0  0  0  0  0  0  0  0  0  0
  -13.1405   33.8272   -0.6010 O   0  0  0  0  0  0  0  0  0  0  0  0
  -11.5924   28.7796    3.0021 O   0  0  0  0  0  0  0  0  0  0  0  0
  -10.4105   28.1617    3.4082 C   0  0  2  0  0  0  0  0  0  0  0  0
   -9.7962   27.4654    2.3804 O   0  0  0  0  0  0  0  0  0  0  0  0
  -10.8065   27.1447    4.4517 C   0  0  2  0  0  0  0  0  0  0  0  0
   -9.7326   26.6302    5.2095 N   0  0  0  0  0  0  0  0  0  0  0  0
  -11.5877   26.0744    3.6863 C   0  0  1  0  0  0  0  0  0  0  0  0
  -11.7713   25.0345    4.5519 O   0  0  0  0  0  0  0  0  0  0  0  0
  -12.8951   26.7772    3.3188 C   0  0  1  0  0  0  0  0  0  0  0  0
  -13.5741   27.2353    4.4199 O   0  0  0  0  0  0  0  0  0  0  0  0
  -12.4761   27.9427    2.4033 C   0  0  1  0  0  0  0  0  0  0  0  0
  -13.6833   28.6957    1.9256 C   0  0  0  0  0  0  0  0  0  0  0  0
  -13.5549   29.3950    0.7806 O   0  0  0  0  0  0  0  0  0  0  0  0
   -9.3457   27.2669    6.4213 C   0  0  0  0  0  0  0  0  0  0  0  0
  -10.0899   28.1741    6.9108 O   0  0  0  0  0  0  0  0  0  0  0  0
   -8.1151   26.9424    7.1675 C   0  0  0  0  0  0  0  0  0  0  0  0
  -12.5681   23.9977    4.0619 C   0  0  1  0  0  0  0  0  0  0  0  0
  -12.4146   22.7022    4.7301 C   0  0  1  0  0  0  0  0  0  0  0  0
  -13.4691   22.2976    5.6996 C   0  0  2  0  0  0  0  0  0  0  0  0
  -14.6126   23.2806    5.8051 C   0  0  2  0  0  0  0  0  0  0  0  0
  -14.8537   23.6929    4.3444 C   0  0  1  0  0  0  0  0  0  0  0  0
  -16.1490   24.4681    4.3476 C   0  0  0  0  0  0  0  0  0  0  0  0
  -12.3315   21.6633    3.7674 O   0  0  0  0  0  0  0  0  0  0  0  0
  -12.9768   22.1237    7.0092 O   0  0  0  0  0  0  0  0  0  0  0  0
  -14.1362   24.3728    6.5452 O   0  0  0  0  0  0  0  0  0  0  0  0
  -13.8424   24.5247    4.0025 O   0  0  0  0  0  0  0  0  0  0  0  0
  -16.9911   23.8297    5.2877 O   0  0  0  0  0  0  0  0  0  0  0  0
  1  2  1  0
  1 12  1  0
  1 26  1  6
  2  3  1  0
  2  9  1  6
  3  4  1  0
  3 10  1  1
  5  4  1  0
  4 11  1  6
  5  6  1  0
  5 12  1  1
  6 13  1  6
  8  7  1  6
  9  7  1  0
  7 14  2  0
 15 16  1  0
 24 15  1  1
 16 17  1  6
 16 18  1  0
 18 19  1  6
 20 18  1  0
 19 27  1  0
 20 21  1  1
 22 20  1  0
 30 21  1  1
 22 23  1  1
 24 22  1  0
 25 24  1  0
 25 26  1  6
 27 28  2  0
 29 27  1  6
 30 31  1  0
 30 39  1  0
 31 32  1  0
 31 36  1  6
 32 33  1  0
 32 37  1  1
 33 34  1  0
 33 38  1  1
 34 35  1  0
 34 39  1  1
 35 40  1  6
M  END
$$$$
