
     RDKit          3D

 40 42  0  0  0  0  0  0  0  0999 V2000
  -13.7094   27.1705   -0.0816 C   0  0  1  0  0  0  0  0  0  0  0  0
  -14.2680   25.8262   -0.4945 C   0  0  1  0  0  0  0  0  0  0  0  0
  -15.4880   25.9799   -1.3770 C   0  0  2  0  0  0  0  0  0  0  0  0
  -15.5682   27.4208   -1.8800 C   0  0  1  0  0  0  0  0  0  0  0  0
  -14.1838   27.8248   -2.2791 C   0  0  1  0  0  0  0  0  0  0  0  0
  -14.2769   29.2206   -2.9206 C   0  0  0  0  0  0  0  0  0  0  0  0
  -12.9649   23.6838   -0.6804 C   0  0  0  0  0  0  0  0  0  0  0  0
  -11.7338   23.4335    0.1264 C   0  0  0  0  0  0  0  0  0  0  0  0
  -13.2434   25.0031   -1.1063 N   0  0  0  0  0  0  0  0  0  0  0  0
  -16.6447   25.7417   -0.6687 O   0  0  0  0  0  0  0  0  0  0  0  0
  -16.4633   27.5189   -2.9472 O   0  0  0  0  0  0  0  0  0  0  0  0
  -13.3800   27.9512   -1.1916 O   0  0  0  0  0  0  0  0  0  0  0  0
  -15.6154   29.5178   -3.1632 O   0  0  0  0  0  0  0  0  0  0  0  0
  -13.7340   22.7453   -0.9734 O   0  0  0  0  0  0  0  0  0  0  0  0
  -16.0297   29.9628    1.8846 O   0  0  0  0  0  0  0  0  0  0  0  0
  -16.9703   30.6563    2.6448 C   0  0  2  0  0  0  0  0  0  0  0  0
  -16.3839   31.4687    3.6013 O   0  0  0  0  0  0  0  0  0  0  0  0
  -17.7646   29.6082    3.3865 C   0  0  2  0  0  0  0  0  0  0  0  0
  -18.9606   30.0792    3.9697 N   0  0  0  0  0  0  0  0  0  0  0  0
  -16.7835   29.0070    4.3954 C   0  0  1  0  0  0  0  0  0  0  0  0
  -17.5203   28.2150    5.2286 O   0  0  0  0  0  0  0  0  0  0  0  0
  -15.8143   28.2087    3.5228 C   0  0  1  0  0  0  0  0  0  0  0  0
  -16.4484   27.2503    2.7727 O   0  0  0  0  0  0  0  0  0  0  0  0
  -15.1357   29.2569    2.6211 C   0  0  1  0  0  0  0  0  0  0  0  0
  -14.1127   28.6059    1.7367 C   0  0  0  0  0  0  0  0  0  0  0  0
  -14.5730   27.8041    0.7559 O   0  0  0  0  0  0  0  0  0  0  0  0
  -20.0806   30.3880    3.1487 C   0  0  0  0  0  0  0  0  0  0  0  0
  -20.9822   29.5090    2.9728 O   0  0  0  0  0  0  0  0  0  0  0  0
  -20.2750   31.6843    2.4717 C   0  0  0  0  0  0  0  0  0  0  0  0
  -18.2421   28.9038    6.2056 C   0  0  1  0  0  0  0  0  0  0  0  0
  -19.6980   28.7404    6.1595 C   0  0  1  0  0  0  0  0  0  0  0  0
  -20.3200   27.8210    7.1513 C   0  0  2  0  0  0  0  0  0  0  0  0
  -19.3373   27.2257    8.1336 C   0  0  2  0  0  0  0  0  0  0  0  0
  -18.4182   28.4108    8.4689 C   0  0  1  0  0  0  0  0  0  0  0  0
  -17.5794   27.9584    9.6396 C   0  0  0  0  0  0  0  0  0  0  0  0
  -20.3355   29.9977    6.3197 O   0  0  0  0  0  0  0  0  0  0  0  0
  -20.9866   26.7328    6.5522 O   0  0  0  0  0  0  0  0  0  0  0  0
  -18.6227   26.2390    7.4385 O   0  0  0  0  0  0  0  0  0  0  0  0
  -17.6146   28.5962    7.3958 O   0  0  0  0  0  0  0  0  0  0  0  0
  -16.4003   28.7388    9.6079 O   0  0  0  0  0  0  0  0  0  0  0  0
  1  2  1  0
  1 12  1  0
  1 26  1  6
  2  3  1  0
  2  9  1  6
  3  4  1  0
  3 10  1  1
  5  4  1  0
  4 11  1  6
  5  6  1  0
  5 12  1  1
  6 13  1  6
  8  7  1  6
  9  7  1  0
  7 14  2  0
 15 16  1  0
 24 15  1  6
 16 17  1  1
 16 18  1  0
 18 19  1  1
 20 18  1  0
 19 27  1  0
 20 21  1  1
 22 20  1  0
 30 21  1  6
 22 23  1  6
 24 22  1  0
 25 24  1  0
 25 26  1  6
 27 28  2  0
 29 27  1  6
 30 31  1  0
 30 39  1  0
 31 32  1  0
 31 36  1  1
 32 33  1  0
 32 37  1  6
 33 34  1  0
 33 38  1  6
 34 35  1  0
 34 39  1  6
 35 40  1  6
M  END
$$$$
