
     RDKit          3D

 40 42  0  0  0  0  0  0  0  0999 V2000
  -16.2466   29.9772   -1.4791 C   0  0  1  0  0  0  0  0  0  0  0  0
  -15.3929   30.3247   -2.6792 C   0  0  1  0  0  0  0  0  0  0  0  0
  -15.0428   29.0931   -3.4863 C   0  0  2  0  0  0  0  0  0  0  0  0
  -15.9483   27.9376   -3.0612 C   0  0  1  0  0  0  0  0  0  0  0  0
  -17.3322   28.4904   -2.9259 C   0  0  1  0  0  0  0  0  0  0  0  0
  -18.2757   27.3087   -2.6397 C   0  0  0  0  0  0  0  0  0  0  0  0
  -15.5728   32.6934   -3.5034 C   0  0  0  0  0  0  0  0  0  0  0  0
  -16.4635   33.7422   -4.0829 C   0  0  0  0  0  0  0  0  0  0  0  0
  -16.0221   31.3528   -3.4846 N   0  0  0  0  0  0  0  0  0  0  0  0
  -13.7479   28.6929   -3.2426 O   0  0  0  0  0  0  0  0  0  0  0  0
  -15.8945   26.9023   -3.9966 O   0  0  0  0  0  0  0  0  0  0  0  0
  -17.4217   29.3249   -1.8580 O   0  0  0  0  0  0  0  0  0  0  0  0
  -18.7638   27.4249   -1.3408 O   0  0  0  0  0  0  0  0  0  0  0  0
  -14.4520   32.9949   -3.0440 O   0  0  0  0  0  0  0  0  0  0  0  0
  -14.6604   30.7365    2.3615 O   0  0  0  0  0  0  0  0  0  0  0  0
  -13.5417   31.0365    3.1376 C   0  0  2  0  0  0  0  0  0  0  0  0
  -12.3777   31.0955    2.3891 O   0  0  0  0  0  0  0  0  0  0  0  0
  -13.3832   29.8886    4.1055 C   0  0  2  0  0  0  0  0  0  0  0  0
  -12.5009   30.1405    5.1780 N   0  0  0  0  0  0  0  0  0  0  0  0
  -12.9749   28.6939    3.2408 C   0  0  1  0  0  0  0  0  0  0  0  0
  -12.6103   27.6985    4.1013 O   0  0  0  0  0  0  0  0  0  0  0  0
  -14.2470   28.3645    2.4587 C   0  0  1  0  0  0  0  0  0  0  0  0
  -15.3100   28.0797    3.2785 O   0  0  0  0  0  0  0  0  0  0  0  0
  -14.5256   29.6172    1.6072 C   0  0  1  0  0  0  0  0  0  0  0  0
  -15.7356   29.4074    0.7443 C   0  0  0  0  0  0  0  0  0  0  0  0
  -15.5254   29.2577   -0.5785 O   0  0  0  0  0  0  0  0  0  0  0  0
  -13.0159   30.4758    6.4611 C   0  0  0  0  0  0  0  0  0  0  0  0
  -14.2749   30.5201    6.6323 O   0  0  0  0  0  0  0  0  0  0  0  0
  -12.1744   30.7827    7.6334 C   0  0  0  0  0  0  0  0  0  0  0  0
  -11.8420   26.6820    3.5300 C   0  0  1  0  0  0  0  0  0  0  0  0
  -10.8805   26.0282    4.4224 C   0  0  1  0  0  0  0  0  0  0  0  0
  -11.2384   24.6856    4.9563 C   0  0  2  0  0  0  0  0  0  0  0  0
  -12.5494   24.1478    4.4300 C   0  0  2  0  0  0  0  0  0  0  0  0
  -12.5143   24.5370    2.9438 C   0  0  1  0  0  0  0  0  0  0  0  0
  -13.6671   23.8032    2.3023 C   0  0  0  0  0  0  0  0  0  0  0  0
   -9.6295   25.8823    3.7692 O   0  0  0  0  0  0  0  0  0  0  0  0
  -11.3380   24.6599    6.3624 O   0  0  0  0  0  0  0  0  0  0  0  0
  -13.5666   24.8511    5.0919 O   0  0  0  0  0  0  0  0  0  0  0  0
  -12.7507   25.8683    2.8842 O   0  0  0  0  0  0  0  0  0  0  0  0
  -13.7628   24.2940    0.9793 O   0  0  0  0  0  0  0  0  0  0  0  0
  1  2  1  0
  1 12  1  0
  1 26  1  1
  2  3  1  0
  2  9  1  6
  3  4  1  0
  3 10  1  1
  5  4  1  0
  4 11  1  6
  5  6  1  0
  5 12  1  1
  6 13  1  6
  8  7  1  6
  9  7  1  0
  7 14  2  0
 15 16  1  0
 24 15  1  1
 16 17  1  6
 16 18  1  0
 18 19  1  1
 20 18  1  0
 19 27  1  0
 20 21  1  1
 22 20  1  0
 30 21  1  1
 22 23  1  1
 24 22  1  0
 25 24  1  0
 25 26  1  6
 27 28  2  0
 29 27  1  6
 30 31  1  0
 30 39  1  0
 31 32  1  0
 31 36  1  6
 32 33  1  0
 32 37  1  1
 33 34  1  0
 33 38  1  1
 34 35  1  0
 34 39  1  1
 35 40  1  6
M  END
$$$$
