
     RDKit          3D

 40 42  0  0  0  0  0  0  0  0999 V2000
  -12.4984   28.0261    5.0249 C   0  0  1  0  0  0  0  0  0  0  0  0
  -11.8444   29.1960    5.7272 C   0  0  1  0  0  0  0  0  0  0  0  0
  -12.8348   29.9504    6.5881 C   0  0  2  0  0  0  0  0  0  0  0  0
  -14.0901   29.0991    6.7763 C   0  0  1  0  0  0  0  0  0  0  0  0
  -13.6355   27.6991    7.0454 C   0  0  1  0  0  0  0  0  0  0  0  0
  -14.8845   26.8640    7.3788 C   0  0  0  0  0  0  0  0  0  0  0  0
   -9.4553   29.4796    6.4580 C   0  0  0  0  0  0  0  0  0  0  0  0
   -8.1801   28.7219    6.6281 C   0  0  0  0  0  0  0  0  0  0  0  0
  -10.6773   28.7683    6.4731 N   0  0  0  0  0  0  0  0  0  0  0  0
  -13.2347   31.1174    5.9760 O   0  0  0  0  0  0  0  0  0  0  0  0
  -14.8700   29.5991    7.8210 O   0  0  0  0  0  0  0  0  0  0  0  0
  -13.0833   27.1438    5.9356 O   0  0  0  0  0  0  0  0  0  0  0  0
  -15.7288   26.8524    6.2717 O   0  0  0  0  0  0  0  0  0  0  0  0
   -9.4424   30.7184    6.3052 O   0  0  0  0  0  0  0  0  0  0  0  0
  -13.9275   30.3894    1.9192 O   0  0  0  0  0  0  0  0  0  0  0  0
  -14.8201   31.0965    1.1148 C   0  0  2  0  0  0  0  0  0  0  0  0
  -16.1358   30.7156    1.3212 O   0  0  0  0  0  0  0  0  0  0  0  0
  -14.4770   30.7344   -0.3103 C   0  0  2  0  0  0  0  0  0  0  0  0
  -15.0550   31.5742   -1.2865 N   0  0  0  0  0  0  0  0  0  0  0  0
  -14.8729   29.2630   -0.4522 C   0  0  1  0  0  0  0  0  0  0  0  0
  -14.7830   28.9634   -1.7813 O   0  0  0  0  0  0  0  0  0  0  0  0
  -13.8320   28.5274    0.3926 C   0  0  1  0  0  0  0  0  0  0  0  0
  -12.5479   28.7679   -0.0273 O   0  0  0  0  0  0  0  0  0  0  0  0
  -14.0498   29.0416    1.8280 C   0  0  1  0  0  0  0  0  0  0  0  0
  -13.1130   28.3561    2.7793 C   0  0  0  0  0  0  0  0  0  0  0  0
  -13.3854   28.4692    4.0945 O   0  0  0  0  0  0  0  0  0  0  0  0
  -16.2504   31.1795   -1.9490 C   0  0  0  0  0  0  0  0  0  0  0  0
  -16.1805   30.7120   -3.1293 O   0  0  0  0  0  0  0  0  0  0  0  0
  -17.5956   31.2760   -1.3509 C   0  0  0  0  0  0  0  0  0  0  0  0
  -15.8285   28.1823   -2.2780 C   0  0  1  0  0  0  0  0  0  0  0  0
  -16.0070   28.2025   -3.7327 C   0  0  1  0  0  0  0  0  0  0  0  0
  -15.5141   27.0286   -4.5039 C   0  0  2  0  0  0  0  0  0  0  0  0
  -14.9465   25.9248   -3.6412 C   0  0  2  0  0  0  0  0  0  0  0  0
  -15.9259   25.8683   -2.4582 C   0  0  1  0  0  0  0  0  0  0  0  0
  -15.5706   24.6162   -1.6936 C   0  0  0  0  0  0  0  0  0  0  0  0
  -17.3813   28.3481   -4.0539 O   0  0  0  0  0  0  0  0  0  0  0  0
  -14.5059   27.3618   -5.4313 O   0  0  0  0  0  0  0  0  0  0  0  0
  -13.6863   26.3620   -3.2073 O   0  0  0  0  0  0  0  0  0  0  0  0
  -15.6643   26.9473   -1.6842 O   0  0  0  0  0  0  0  0  0  0  0  0
  -16.2900   23.5618   -2.3028 O   0  0  0  0  0  0  0  0  0  0  0  0
  1  2  1  0
  1 12  1  0
  1 26  1  6
  2  3  1  0
  2  9  1  1
  3  4  1  0
  3 10  1  6
  5  4  1  0
  4 11  1  1
  5  6  1  0
  5 12  1  6
  6 13  1  6
  8  7  1  6
  9  7  1  0
  7 14  2  0
 15 16  1  0
 24 15  1  6
 16 17  1  1
 16 18  1  0
 18 19  1  6
 20 18  1  0
 19 27  1  0
 20 21  1  6
 22 20  1  0
 30 21  1  6
 22 23  1  6
 24 22  1  0
 25 24  1  0
 25 26  1  6
 27 28  2  0
 29 27  1  6
 30 31  1  0
 30 39  1  0
 31 32  1  0
 31 36  1  1
 32 33  1  0
 32 37  1  6
 33 34  1  0
 33 38  1  1
 34 35  1  0
 34 39  1  1
 35 40  1  6
M  END
$$$$
