
     RDKit          3D

 40 42  0  0  0  0  0  0  0  0999 V2000
  -15.6729   28.1949   -1.2158 C   0  0  1  0  0  0  0  0  0  0  0  0
  -15.6892   28.9753   -2.5122 C   0  0  1  0  0  0  0  0  0  0  0  0
  -15.0120   28.2101   -3.6288 C   0  0  2  0  0  0  0  0  0  0  0  0
  -14.8458   26.7495   -3.2106 C   0  0  1  0  0  0  0  0  0  0  0  0
  -16.1257   26.3307   -2.5582 C   0  0  1  0  0  0  0  0  0  0  0  0
  -16.0223   24.8238   -2.2636 C   0  0  0  0  0  0  0  0  0  0  0  0
  -17.4668   30.7271   -2.8186 C   0  0  0  0  0  0  0  0  0  0  0  0
  -18.9185   31.0245   -3.0003 C   0  0  0  0  0  0  0  0  0  0  0  0
  -17.0374   29.3804   -2.8583 N   0  0  0  0  0  0  0  0  0  0  0  0
  -13.7479   28.7005   -3.8694 O   0  0  0  0  0  0  0  0  0  0  0  0
  -14.5451   25.9533   -4.3175 O   0  0  0  0  0  0  0  0  0  0  0  0
  -16.2876   26.9494   -1.3600 O   0  0  0  0  0  0  0  0  0  0  0  0
  -15.7636   24.1478   -3.4531 O   0  0  0  0  0  0  0  0  0  0  0  0
  -16.6473   31.6507   -2.6351 O   0  0  0  0  0  0  0  0  0  0  0  0
  -14.5740   29.6968    1.6464 O   0  0  0  0  0  0  0  0  0  0  0  0
  -14.1465   30.7232    2.4874 C   0  0  2  0  0  0  0  0  0  0  0  0
  -12.9136   31.2340    2.1158 O   0  0  0  0  0  0  0  0  0  0  0  0
  -13.9704   30.1011    3.8518 C   0  0  2  0  0  0  0  0  0  0  0  0
  -13.8416   31.0275    4.9089 N   0  0  0  0  0  0  0  0  0  0  0  0
  -12.7712   29.1615    3.7078 C   0  0  1  0  0  0  0  0  0  0  0  0
  -12.4467   28.7503    4.9688 O   0  0  0  0  0  0  0  0  0  0  0  0
  -13.3064   28.0265    2.8340 C   0  0  1  0  0  0  0  0  0  0  0  0
  -14.3966   27.4044    3.3886 O   0  0  0  0  0  0  0  0  0  0  0  0
  -13.6727   28.6944    1.4954 C   0  0  1  0  0  0  0  0  0  0  0  0
  -14.1723   27.6716    0.5173 C   0  0  0  0  0  0  0  0  0  0  0  0
  -14.4024   28.0908   -0.7428 O   0  0  0  0  0  0  0  0  0  0  0  0
  -13.7287   32.4177    4.6288 C   0  0  0  0  0  0  0  0  0  0  0  0
  -14.6643   33.2008    4.9864 O   0  0  0  0  0  0  0  0  0  0  0  0
  -12.5778   33.0292    3.9374 C   0  0  0  0  0  0  0  0  0  0  0  0
  -11.1573   29.0910    5.3827 C   0  0  1  0  0  0  0  0  0  0  0  0
  -11.0320   29.5585    6.7662 C   0  0  1  0  0  0  0  0  0  0  0  0
  -10.4931   28.6014    7.7709 C   0  0  2  0  0  0  0  0  0  0  0  0
  -10.0778   27.2706    7.1864 C   0  0  2  0  0  0  0  0  0  0  0  0
   -9.3880   27.6673    5.8717 C   0  0  1  0  0  0  0  0  0  0  0  0
   -8.7185   26.4119    5.3671 C   0  0  0  0  0  0  0  0  0  0  0  0
  -10.2032   30.7087    6.8196 O   0  0  0  0  0  0  0  0  0  0  0  0
  -11.4093   28.3102    8.8021 O   0  0  0  0  0  0  0  0  0  0  0  0
  -11.2592   26.5628    6.9202 O   0  0  0  0  0  0  0  0  0  0  0  0
  -10.3686   28.0217    5.0090 O   0  0  0  0  0  0  0  0  0  0  0  0
   -8.3145   26.6841    4.0393 O   0  0  0  0  0  0  0  0  0  0  0  0
  1  2  1  0
  1 12  1  0
  1 26  1  6
  2  3  1  0
  2  9  1  6
  3  4  1  0
  3 10  1  1
  5  4  1  0
  4 11  1  6
  5  6  1  0
  5 12  1  1
  6 13  1  6
  8  7  1  6
  9  7  1  0
  7 14  2  0
 15 16  1  0
 24 15  1  1
 16 17  1  6
 16 18  1  0
 18 19  1  1
 20 18  1  0
 19 27  1  0
 20 21  1  1
 22 20  1  0
 30 21  1  1
 22 23  1  1
 24 22  1  0
 25 24  1  0
 25 26  1  6
 27 28  2  0
 29 27  1  6
 30 31  1  0
 30 39  1  0
 31 32  1  0
 31 36  1  6
 32 33  1  0
 32 37  1  1
 33 34  1  0
 33 38  1  6
 34 35  1  0
 34 39  1  6
 35 40  1  6
M  END
$$$$
