
     RDKit          3D

 40 42  0  0  0  0  0  0  0  0999 V2000
  -14.7148   27.1862   -1.2199 C   0  0  1  0  0  0  0  0  0  0  0  0
  -16.0547   26.4832   -1.2382 C   0  0  1  0  0  0  0  0  0  0  0  0
  -17.1282   27.3515   -1.8583 C   0  0  2  0  0  0  0  0  0  0  0  0
  -16.4700   28.5127   -2.6027 C   0  0  1  0  0  0  0  0  0  0  0  0
  -15.3046   27.9494   -3.3534 C   0  0  1  0  0  0  0  0  0  0  0  0
  -14.7224   29.0808   -4.2191 C   0  0  0  0  0  0  0  0  0  0  0  0
  -15.0631   24.1812   -1.4378 C   0  0  0  0  0  0  0  0  0  0  0  0
  -13.8836   23.8406   -2.2876 C   0  0  0  0  0  0  0  0  0  0  0  0
  -15.9531   25.1872   -1.8798 N   0  0  0  0  0  0  0  0  0  0  0  0
  -17.9359   27.9068   -0.8910 O   0  0  0  0  0  0  0  0  0  0  0  0
  -17.3858   29.1299   -3.4570 O   0  0  0  0  0  0  0  0  0  0  0  0
  -14.3172   27.5644   -2.5040 O   0  0  0  0  0  0  0  0  0  0  0  0
  -13.3325   29.0314   -4.1518 O   0  0  0  0  0  0  0  0  0  0  0  0
  -15.2596   23.5884   -0.3570 O   0  0  0  0  0  0  0  0  0  0  0  0
  -13.5860   30.6660    1.1641 O   0  0  0  0  0  0  0  0  0  0  0  0
  -13.6933   31.6827    2.1119 C   0  0  2  0  0  0  0  0  0  0  0  0
  -13.0599   31.3664    3.3025 O   0  0  0  0  0  0  0  0  0  0  0  0
  -15.1656   31.8148    2.4199 C   0  0  2  0  0  0  0  0  0  0  0  0
  -15.5175   32.9889    3.1199 N   0  0  0  0  0  0  0  0  0  0  0  0
  -15.5340   30.5254    3.1570 C   0  0  1  0  0  0  0  0  0  0  0  0
  -16.7976   30.7035    3.6426 O   0  0  0  0  0  0  0  0  0  0  0  0
  -15.4638   29.4553    2.0669 C   0  0  1  0  0  0  0  0  0  0  0  0
  -16.3065   29.7180    1.0162 O   0  0  0  0  0  0  0  0  0  0  0  0
  -13.9934   29.4509    1.6084 C   0  0  1  0  0  0  0  0  0  0  0  0
  -13.7729   28.3991    0.5608 C   0  0  0  0  0  0  0  0  0  0  0  0
  -14.7448   28.2382   -0.3590 O   0  0  0  0  0  0  0  0  0  0  0  0
  -14.8643   34.2177    2.8247 C   0  0  0  0  0  0  0  0  0  0  0  0
  -14.4785   34.9609    3.7814 O   0  0  0  0  0  0  0  0  0  0  0  0
  -14.5966   34.7021    1.4571 C   0  0  0  0  0  0  0  0  0  0  0  0
  -16.9125   31.6814    4.6329 C   0  0  1  0  0  0  0  0  0  0  0  0
  -17.8020   32.8044    4.3229 C   0  0  1  0  0  0  0  0  0  0  0  0
  -19.1503   32.8098    4.9536 C   0  0  2  0  0  0  0  0  0  0  0  0
  -19.3860   31.6574    5.9030 C   0  0  2  0  0  0  0  0  0  0  0  0
  -18.0499   31.5454    6.6538 C   0  0  1  0  0  0  0  0  0  0  0  0
  -18.3022   30.5911    7.7960 C   0  0  0  0  0  0  0  0  0  0  0  0
  -17.1839   34.0301    4.6815 O   0  0  0  0  0  0  0  0  0  0  0  0
  -20.1994   32.7662    4.0128 O   0  0  0  0  0  0  0  0  0  0  0  0
  -19.5936   30.5195    5.1096 O   0  0  0  0  0  0  0  0  0  0  0  0
  -17.1670   30.9832    5.7958 O   0  0  0  0  0  0  0  0  0  0  0  0
  -17.0620   29.9718    8.0768 O   0  0  0  0  0  0  0  0  0  0  0  0
  1  2  1  0
  1 12  1  0
  1 26  1  1
  2  3  1  0
  2  9  1  6
  3  4  1  0
  3 10  1  1
  5  4  1  0
  4 11  1  6
  5  6  1  0
  5 12  1  1
  6 13  1  6
  8  7  1  6
  9  7  1  0
  7 14  2  0
 15 16  1  0
 24 15  1  6
 16 17  1  1
 16 18  1  0
 18 19  1  1
 20 18  1  0
 19 27  1  0
 20 21  1  6
 22 20  1  0
 30 21  1  6
 22 23  1  6
 24 22  1  0
 25 24  1  0
 25 26  1  6
 27 28  2  0
 29 27  1  6
 30 31  1  0
 30 39  1  0
 31 32  1  0
 31 36  1  1
 32 33  1  0
 32 37  1  6
 33 34  1  0
 33 38  1  6
 34 35  1  0
 34 39  1  6
 35 40  1  6
M  END
$$$$
