
     RDKit          3D

 40 42  0  0  0  0  0  0  0  0999 V2000
  -16.6482   31.2014   -0.5726 C   0  0  1  0  0  0  0  0  0  0  0  0
  -16.3767   32.7037   -0.5995 C   0  0  1  0  0  0  0  0  0  0  0  0
  -15.7357   33.1654   -1.8772 C   0  0  2  0  0  0  0  0  0  0  0  0
  -15.7563   32.0126   -2.8550 C   0  0  1  0  0  0  0  0  0  0  0  0
  -17.1364   31.4162   -2.8244 C   0  0  1  0  0  0  0  0  0  0  0  0
  -17.3676   30.4817   -4.0074 C   0  0  0  0  0  0  0  0  0  0  0  0
  -17.7527   34.2198    0.8740 C   0  0  0  0  0  0  0  0  0  0  0  0
  -19.1117   34.5012    1.4069 C   0  0  0  0  0  0  0  0  0  0  0  0
  -17.6113   33.4401   -0.3065 N   0  0  0  0  0  0  0  0  0  0  0  0
  -14.3885   33.5319   -1.6944 O   0  0  0  0  0  0  0  0  0  0  0  0
  -15.5681   32.5837   -4.1325 O   0  0  0  0  0  0  0  0  0  0  0  0
  -17.4553   30.8201   -1.6376 O   0  0  0  0  0  0  0  0  0  0  0  0
  -16.2281   29.7458   -4.3096 O   0  0  0  0  0  0  0  0  0  0  0  0
  -16.7576   34.6715    1.4700 O   0  0  0  0  0  0  0  0  0  0  0  0
  -13.7367   28.8459    1.9692 O   0  0  0  0  0  0  0  0  0  0  0  0
  -13.2544   27.6064    2.3018 C   0  0  2  0  0  0  0  0  0  0  0  0
  -11.9697   27.4251    1.8374 O   0  0  0  0  0  0  0  0  0  0  0  0
  -14.2121   26.6127    1.6980 C   0  0  2  0  0  0  0  0  0  0  0  0
  -14.0297   25.2787    2.2296 N   0  0  0  0  0  0  0  0  0  0  0  0
  -14.0775   26.6739    0.2109 C   0  0  1  0  0  0  0  0  0  0  0  0
  -15.2156   26.1869   -0.3459 O   0  0  0  0  0  0  0  0  0  0  0  0
  -13.5442   27.9395   -0.2619 C   0  0  1  0  0  0  0  0  0  0  0  0
  -13.9930   28.3333   -1.5296 O   0  0  0  0  0  0  0  0  0  0  0  0
  -13.8585   29.1081    0.6478 C   0  0  1  0  0  0  0  0  0  0  0  0
  -15.2774   29.5143    0.3346 C   0  0  0  0  0  0  0  0  0  0  0  0
  -15.4729   30.5591   -0.4836 O   0  0  0  0  0  0  0  0  0  0  0  0
  -13.0419   24.3723    1.7507 C   0  0  0  0  0  0  0  0  0  0  0  0
  -13.4380   23.2810    1.2657 O   0  0  0  0  0  0  0  0  0  0  0  0
  -11.5884   24.7090    1.8234 C   0  0  0  0  0  0  0  0  0  0  0  0
  -15.1330   25.0925   -1.1510 C   0  0  1  0  0  0  0  0  0  0  0  0
  -16.3895   24.2453   -1.1518 C   0  0  1  0  0  0  0  0  0  0  0  0
  -16.8440   24.0085   -2.5969 C   0  0  2  0  0  0  0  0  0  0  0  0
  -15.6842   23.4095   -3.3583 C   0  0  2  0  0  0  0  0  0  0  0  0
  -14.4170   24.1884   -3.0890 C   0  0  1  0  0  0  0  0  0  0  0  0
  -13.6074   24.3996   -4.3485 C   0  0  0  0  0  0  0  0  0  0  0  0
  -16.1772   22.9754   -0.6127 O   0  0  0  0  0  0  0  0  0  0  0  0
  -17.1193   25.2507   -3.1428 O   0  0  0  0  0  0  0  0  0  0  0  0
  -15.9492   23.4114   -4.7145 O   0  0  0  0  0  0  0  0  0  0  0  0
  -14.7034   25.3875   -2.4538 O   0  0  0  0  0  0  0  0  0  0  0  0
  -12.5000   25.1543   -4.0440 O   0  0  0  0  0  0  0  0  0  0  0  0
  1  2  1  0
  1 12  1  0
  1 26  1  6
  2  3  1  0
  2  9  1  6
  3  4  1  0
  3 10  1  1
  5  4  1  0
  4 11  1  6
  5  6  1  6
 12  5  1  0
  6 13  1  0
  7  8  1  0
  9  7  1  0
  7 14  2  0
 15 16  1  0
 24 15  1  0
 16 17  1  6
 16 18  1  0
 18 19  1  1
 20 18  1  0
 19 27  1  0
 20 21  1  6
 22 20  1  0
 30 21  1  1
 22 23  1  6
 24 22  1  0
 24 25  1  1
 25 26  1  0
 27 28  2  0
 27 29  1  0
 30 31  1  0
 30 39  1  0
 31 32  1  0
 31 36  1  6
 32 33  1  0
 32 37  1  6
 33 34  1  0
 33 38  1  6
 34 35  1  6
 34 39  1  0
 35 40  1  0
M  END
$$$$
