
     RDKit          3D

 40 42  0  0  0  0  0  0  0  0999 V2000
  -14.9614   28.3410   -2.1059 C   0  0  1  0  0  0  0  0  0  0  0  0
  -14.6314   27.1730   -3.0096 C   0  0  1  0  0  0  0  0  0  0  0  0
  -15.7302   26.1321   -2.9942 C   0  0  2  0  0  0  0  0  0  0  0  0
  -16.9874   26.7352   -2.3685 C   0  0  1  0  0  0  0  0  0  0  0  0
  -17.1406   28.1133   -2.9312 C   0  0  1  0  0  0  0  0  0  0  0  0
  -18.4792   28.6747   -2.4197 C   0  0  0  0  0  0  0  0  0  0  0  0
  -13.0492   27.4361   -4.9460 C   0  0  0  0  0  0  0  0  0  0  0  0
  -12.8012   28.0019   -6.3052 C   0  0  0  0  0  0  0  0  0  0  0  0
  -14.3177   27.6256   -4.3505 N   0  0  0  0  0  0  0  0  0  0  0  0
  -15.3783   25.0521   -2.2156 O   0  0  0  0  0  0  0  0  0  0  0  0
  -18.1015   25.9389   -2.6408 O   0  0  0  0  0  0  0  0  0  0  0  0
  -16.1700   28.9411   -2.4650 O   0  0  0  0  0  0  0  0  0  0  0  0
  -18.2303   29.5334   -1.3522 O   0  0  0  0  0  0  0  0  0  0  0  0
  -12.1528   26.8073   -4.3465 O   0  0  0  0  0  0  0  0  0  0  0  0
  -13.1819   28.6153    1.5149 O   0  0  0  0  0  0  0  0  0  0  0  0
  -12.5701   28.2364    2.7089 C   0  0  2  0  0  0  0  0  0  0  0  0
  -12.9458   26.9672    3.1174 O   0  0  0  0  0  0  0  0  0  0  0  0
  -13.0678   29.2004    3.7590 C   0  0  2  0  0  0  0  0  0  0  0  0
  -12.3370   29.1843    4.9665 N   0  0  0  0  0  0  0  0  0  0  0  0
  -14.5510   28.8666    3.9332 C   0  0  1  0  0  0  0  0  0  0  0  0
  -14.9803   29.5645    5.0254 O   0  0  0  0  0  0  0  0  0  0  0  0
  -15.1852   29.3559    2.6307 C   0  0  1  0  0  0  0  0  0  0  0  0
  -14.9709   30.6934    2.4108 O   0  0  0  0  0  0  0  0  0  0  0  0
  -14.5336   28.5027    1.5263 C   0  0  1  0  0  0  0  0  0  0  0  0
  -15.1087   28.8517    0.1847 C   0  0  0  0  0  0  0  0  0  0  0  0
  -14.9473   27.9498   -0.8038 O   0  0  0  0  0  0  0  0  0  0  0  0
  -11.3240   30.1555    5.1997 C   0  0  0  0  0  0  0  0  0  0  0  0
  -11.2143   31.1411    4.4040 O   0  0  0  0  0  0  0  0  0  0  0  0
  -10.3705   30.0995    6.3240 C   0  0  0  0  0  0  0  0  0  0  0  0
  -15.1622   28.7965    6.1774 C   0  0  1  0  0  0  0  0  0  0  0  0
  -15.2953   29.5448    7.4307 C   0  0  1  0  0  0  0  0  0  0  0  0
  -16.6623   29.6994    7.9991 C   0  0  2  0  0  0  0  0  0  0  0  0
  -17.7362   28.9825    7.2130 C   0  0  2  0  0  0  0  0  0  0  0  0
  -17.0677   27.6483    6.8462 C   0  0  1  0  0  0  0  0  0  0  0  0
  -18.1693   26.7792    6.2897 C   0  0  0  0  0  0  0  0  0  0  0  0
  -14.5027   28.9456    8.4435 O   0  0  0  0  0  0  0  0  0  0  0  0
  -17.0727   31.0451    8.0904 O   0  0  0  0  0  0  0  0  0  0  0  0
  -17.9644   29.7447    6.0578 O   0  0  0  0  0  0  0  0  0  0  0  0
  -16.1775   27.9163    5.8626 O   0  0  0  0  0  0  0  0  0  0  0  0
  -19.2017   26.7798    7.2564 O   0  0  0  0  0  0  0  0  0  0  0  0
  1  2  1  0
  1 12  1  0
  1 26  1  1
  2  3  1  0
  2  9  1  6
  3  4  1  0
  3 10  1  1
  5  4  1  0
  4 11  1  6
  5  6  1  0
  5 12  1  1
  6 13  1  6
  8  7  1  6
  9  7  1  0
  7 14  2  0
 15 16  1  0
 24 15  1  6
 16 17  1  1
 16 18  1  0
 18 19  1  1
 20 18  1  0
 19 27  1  0
 20 21  1  1
 22 20  1  0
 30 21  1  6
 22 23  1  6
 24 22  1  0
 25 24  1  0
 25 26  1  6
 27 28  2  0
 29 27  1  6
 30 31  1  0
 30 39  1  0
 31 32  1  0
 31 36  1  1
 32 33  1  0
 32 37  1  6
 33 34  1  0
 33 38  1  6
 34 35  1  0
 34 39  1  6
 35 40  1  6
M  END
$$$$
