
     RDKit          3D

 40 42  0  0  0  0  0  0  0  0999 V2000
  -16.5988   30.8523    0.5314 C   0  0  1  0  0  0  0  0  0  0  0  0
  -17.1184   31.3267   -0.8237 C   0  0  1  0  0  0  0  0  0  0  0  0
  -18.6068   31.5281   -0.8481 C   0  0  2  0  0  0  0  0  0  0  0  0
  -19.1192   31.4082    0.5691 C   0  0  1  0  0  0  0  0  0  0  0  0
  -18.2170   32.2290    1.4488 C   0  0  1  0  0  0  0  0  0  0  0  0
  -18.8348   32.4573    2.8244 C   0  0  0  0  0  0  0  0  0  0  0  0
  -15.9344   32.6991   -2.5780 C   0  0  0  0  0  0  0  0  0  0  0  0
  -15.8447   34.0663   -3.1549 C   0  0  0  0  0  0  0  0  0  0  0  0
  -16.3938   32.5315   -1.2430 N   0  0  0  0  0  0  0  0  0  0  0  0
  -19.2642   30.5452   -1.6127 O   0  0  0  0  0  0  0  0  0  0  0  0
  -20.3913   32.0210    0.5752 O   0  0  0  0  0  0  0  0  0  0  0  0
  -16.9429   31.7452    1.5392 O   0  0  0  0  0  0  0  0  0  0  0  0
  -18.6135   31.3779    3.6714 O   0  0  0  0  0  0  0  0  0  0  0  0
  -15.6056   31.7203   -3.2732 O   0  0  0  0  0  0  0  0  0  0  0  0
  -14.2252   28.4391    2.0995 O   0  0  0  0  0  0  0  0  0  0  0  0
  -13.1730   27.5601    2.0914 C   0  0  2  0  0  0  0  0  0  0  0  0
  -12.0511   28.1235    1.5230 O   0  0  0  0  0  0  0  0  0  0  0  0
  -13.6448   26.3551    1.3203 C   0  0  2  0  0  0  0  0  0  0  0  0
  -12.7755   25.2115    1.4993 N   0  0  0  0  0  0  0  0  0  0  0  0
  -13.8080   26.7481   -0.1123 C   0  0  1  0  0  0  0  0  0  0  0  0
  -14.6644   25.8768   -0.7038 O   0  0  0  0  0  0  0  0  0  0  0  0
  -14.0138   28.1746   -0.2925 C   0  0  1  0  0  0  0  0  0  0  0  0
  -14.8015   28.5231   -1.3978 O   0  0  0  0  0  0  0  0  0  0  0  0
  -14.6766   28.8463    0.8913 C   0  0  1  0  0  0  0  0  0  0  0  0
  -16.1514   28.5521    0.7695 C   0  0  0  0  0  0  0  0  0  0  0  0
  -17.0036   29.5868    0.7219 O   0  0  0  0  0  0  0  0  0  0  0  0
  -12.1242   24.9068    2.7280 C   0  0  0  0  0  0  0  0  0  0  0  0
  -12.7824   24.2779    3.5966 O   0  0  0  0  0  0  0  0  0  0  0  0
  -10.7101   25.3209    2.9730 C   0  0  0  0  0  0  0  0  0  0  0  0
  -14.2082   25.1061   -1.7288 C   0  0  1  0  0  0  0  0  0  0  0  0
  -13.8548   23.6925   -1.3125 C   0  0  1  0  0  0  0  0  0  0  0  0
  -14.5698   22.6960   -2.2328 C   0  0  2  0  0  0  0  0  0  0  0  0
  -14.2088   23.0375   -3.6599 C   0  0  2  0  0  0  0  0  0  0  0  0
  -14.3586   24.5221   -3.9018 C   0  0  1  0  0  0  0  0  0  0  0  0
  -15.0057   24.8125   -5.2373 C   0  0  0  0  0  0  0  0  0  0  0  0
  -12.4928   23.4201   -1.4511 O   0  0  0  0  0  0  0  0  0  0  0  0
  -15.9295   22.9024   -2.0735 O   0  0  0  0  0  0  0  0  0  0  0  0
  -15.0173   22.3415   -4.5384 O   0  0  0  0  0  0  0  0  0  0  0  0
  -15.0433   25.1232   -2.8563 O   0  0  0  0  0  0  0  0  0  0  0  0
  -15.0554   26.1736   -5.4207 O   0  0  0  0  0  0  0  0  0  0  0  0
  1  2  1  0
  1 12  1  0
  1 26  1  1
  2  3  1  0
  2  9  1  1
  3  4  1  0
  3 10  1  6
  5  4  1  0
  4 11  1  6
  5  6  1  1
 12  5  1  0
  6 13  1  0
  7  8  1  0
  9  7  1  0
  7 14  2  0
 15 16  1  0
 24 15  1  0
 16 17  1  6
 16 18  1  0
 18 19  1  6
 20 18  1  0
 19 27  1  0
 20 21  1  1
 22 20  1  0
 30 21  1  1
 22 23  1  6
 24 22  1  0
 24 25  1  1
 25 26  1  0
 27 28  2  0
 27 29  1  0
 30 31  1  0
 30 39  1  0
 31 32  1  0
 31 36  1  6
 32 33  1  0
 32 37  1  6
 33 34  1  0
 33 38  1  6
 34 35  1  6
 34 39  1  0
 35 40  1  0
M  END
$$$$
