
     RDKit          3D

 40 42  0  0  0  0  0  0  0  0999 V2000
  -17.1508   31.7319    5.8956 C   0  0  1  0  0  0  0  0  0  0  0  0
  -16.8532   32.4990    7.1656 C   0  0  1  0  0  0  0  0  0  0  0  0
  -17.0957   33.9823    6.9874 C   0  0  2  0  0  0  0  0  0  0  0  0
  -17.9078   34.2110    5.7130 C   0  0  1  0  0  0  0  0  0  0  0  0
  -18.9847   33.1725    5.6858 C   0  0  1  0  0  0  0  0  0  0  0  0
  -19.8947   33.4821    4.4840 C   0  0  0  0  0  0  0  0  0  0  0  0
  -16.9505   31.4086    9.4292 C   0  0  0  0  0  0  0  0  0  0  0  0
  -15.4656   31.2538    9.4181 C   0  0  0  0  0  0  0  0  0  0  0  0
  -17.5873   31.9500    8.2886 N   0  0  0  0  0  0  0  0  0  0  0  0
  -15.9088   34.6625    6.8291 O   0  0  0  0  0  0  0  0  0  0  0  0
  -18.4355   35.5035    5.6928 O   0  0  0  0  0  0  0  0  0  0  0  0
  -18.4649   31.9364    5.4696 O   0  0  0  0  0  0  0  0  0  0  0  0
  -19.1736   34.2218    3.5503 O   0  0  0  0  0  0  0  0  0  0  0  0
  -17.6174   31.0662   10.4274 O   0  0  0  0  0  0  0  0  0  0  0  0
  -15.1596   29.5611    4.4913 O   0  0  0  0  0  0  0  0  0  0  0  0
  -14.1920   28.5727    4.3170 C   0  0  2  0  0  0  0  0  0  0  0  0
  -12.9672   29.0921    3.9313 O   0  0  0  0  0  0  0  0  0  0  0  0
  -14.6785   27.7058    3.1805 C   0  0  2  0  0  0  0  0  0  0  0  0
  -14.0023   26.4739    3.0487 N   0  0  0  0  0  0  0  0  0  0  0  0
  -14.5876   28.5936    1.9373 C   0  0  1  0  0  0  0  0  0  0  0  0
  -14.8086   27.7805    0.8629 O   0  0  0  0  0  0  0  0  0  0  0  0
  -15.7038   29.6180    2.1445 C   0  0  1  0  0  0  0  0  0  0  0  0
  -16.9372   29.0322    2.2817 O   0  0  0  0  0  0  0  0  0  0  0  0
  -15.3096   30.3823    3.4223 C   0  0  1  0  0  0  0  0  0  0  0  0
  -16.3081   31.4634    3.7168 C   0  0  0  0  0  0  0  0  0  0  0  0
  -16.2428   32.0422    4.9323 O   0  0  0  0  0  0  0  0  0  0  0  0
  -13.0199   26.0941    4.0048 C   0  0  0  0  0  0  0  0  0  0  0  0
  -13.3517   25.3306    4.9658 O   0  0  0  0  0  0  0  0  0  0  0  0
  -11.6119   26.5325    3.9599 C   0  0  0  0  0  0  0  0  0  0  0  0
  -14.1133   28.1368   -0.2945 C   0  0  1  0  0  0  0  0  0  0  0  0
  -13.7429   27.0322   -1.1839 C   0  0  1  0  0  0  0  0  0  0  0  0
  -14.5587   26.8339   -2.4131 C   0  0  2  0  0  0  0  0  0  0  0  0
  -15.6393   27.8736   -2.6042 C   0  0  2  0  0  0  0  0  0  0  0  0
  -14.9411   29.1808   -2.1975 C   0  0  1  0  0  0  0  0  0  0  0  0
  -15.8766   30.2899   -2.6140 C   0  0  0  0  0  0  0  0  0  0  0  0
  -12.3982   27.1798   -1.6117 O   0  0  0  0  0  0  0  0  0  0  0  0
  -15.2058   25.5819   -2.4496 O   0  0  0  0  0  0  0  0  0  0  0  0
  -16.6596   27.5645   -1.6926 O   0  0  0  0  0  0  0  0  0  0  0  0
  -14.8457   29.1676   -0.8475 O   0  0  0  0  0  0  0  0  0  0  0  0
  -15.5721   31.3968   -1.7879 O   0  0  0  0  0  0  0  0  0  0  0  0
  1  2  1  0
  1 12  1  0
  1 26  1  6
  2  3  1  0
  2  9  1  1
  3  4  1  0
  3 10  1  6
  5  4  1  0
  4 11  1  1
  5  6  1  0
  5 12  1  6
  6 13  1  6
  8  7  1  6
  9  7  1  0
  7 14  2  0
 15 16  1  0
 24 15  1  1
 16 17  1  6
 16 18  1  0
 18 19  1  6
 20 18  1  0
 19 27  1  0
 20 21  1  6
 22 20  1  0
 30 21  1  1
 22 23  1  1
 24 22  1  0
 25 24  1  0
 25 26  1  6
 27 28  2  0
 29 27  1  6
 30 31  1  0
 30 39  1  0
 31 32  1  0
 31 36  1  6
 32 33  1  0
 32 37  1  1
 33 34  1  0
 33 38  1  1
 34 35  1  0
 34 39  1  1
 35 40  1  6
M  END
$$$$
