
     RDKit          3D

 40 42  0  0  0  0  0  0  0  0999 V2000
   -9.5203   -9.3512  -15.5701 C   0  0  1  0  0  0  0  0  0  0  0  0
   -9.2972  -10.7627  -16.0676 C   0  0  1  0  0  0  0  0  0  0  0  0
  -10.3773  -11.1853  -17.0401 C   0  0  2  0  0  0  0  0  0  0  0  0
  -11.1500   -9.9507  -17.5032 C   0  0  1  0  0  0  0  0  0  0  0  0
  -10.1424   -8.8789  -17.7774 C   0  0  1  0  0  0  0  0  0  0  0  0
  -10.8958   -7.6803  -18.3810 C   0  0  0  0  0  0  0  0  0  0  0  0
   -7.0581  -11.9020  -16.1719 C   0  0  0  0  0  0  0  0  0  0  0  0
   -5.6012  -11.7137  -16.4386 C   0  0  0  0  0  0  0  0  0  0  0  0
   -7.9657  -10.9148  -16.6204 N   0  0  0  0  0  0  0  0  0  0  0  0
  -11.2896  -12.0204  -16.4345 O   0  0  0  0  0  0  0  0  0  0  0  0
  -11.9125  -10.2451  -18.6352 O   0  0  0  0  0  0  0  0  0  0  0  0
   -9.5733   -8.4384  -16.6255 O   0  0  0  0  0  0  0  0  0  0  0  0
  -11.6759   -7.0914  -17.3893 O   0  0  0  0  0  0  0  0  0  0  0  0
   -7.4671  -12.9127  -15.5639 O   0  0  0  0  0  0  0  0  0  0  0  0
  -11.9644   -9.6301  -12.2785 O   0  0  0  0  0  0  0  0  0  0  0  0
  -13.0859   -9.8169  -11.4717 C   0  0  2  0  0  0  0  0  0  0  0  0
  -14.2722   -9.6218  -12.1597 O   0  0  0  0  0  0  0  0  0  0  0  0
  -13.0169   -8.7506  -10.4049 C   0  0  2  0  0  0  0  0  0  0  0  0
  -13.8861   -8.9546   -9.3117 N   0  0  0  0  0  0  0  0  0  0  0  0
  -13.2579   -7.4329  -11.1448 C   0  0  1  0  0  0  0  0  0  0  0  0
  -13.4212   -6.4740  -10.1866 O   0  0  0  0  0  0  0  0  0  0  0  0
  -11.9805   -7.2411  -11.9632 C   0  0  1  0  0  0  0  0  0  0  0  0
  -10.8542   -7.2047  -11.1802 O   0  0  0  0  0  0  0  0  0  0  0  0
  -11.9437   -8.4402  -12.9292 C   0  0  1  0  0  0  0  0  0  0  0  0
  -10.7502   -8.3488  -13.8347 C   0  0  0  0  0  0  0  0  0  0  0  0
  -10.6293   -9.2964  -14.7854 O   0  0  0  0  0  0  0  0  0  0  0  0
  -13.3558   -9.1544   -8.0069 C   0  0  0  0  0  0  0  0  0  0  0  0
  -12.1207   -8.9355   -7.7988 O   0  0  0  0  0  0  0  0  0  0  0  0
  -14.1544   -9.6075   -6.8521 C   0  0  0  0  0  0  0  0  0  0  0  0
  -14.7344   -6.0295  -10.0200 C   0  0  1  0  0  0  0  0  0  0  0  0
  -15.0696   -5.5077   -8.6919 C   0  0  1  0  0  0  0  0  0  0  0  0
  -15.1466   -4.0298   -8.5315 C   0  0  2  0  0  0  0  0  0  0  0  0
  -14.9284   -3.2631   -9.8159 C   0  0  2  0  0  0  0  0  0  0  0  0
  -15.7056   -4.0901  -10.8520 C   0  0  1  0  0  0  0  0  0  0  0  0
  -15.7499   -3.2429  -12.1005 C   0  0  0  0  0  0  0  0  0  0  0  0
  -16.3197   -6.0255   -8.2653 O   0  0  0  0  0  0  0  0  0  0  0  0
  -14.2087   -3.5257   -7.6075 O   0  0  0  0  0  0  0  0  0  0  0  0
  -13.5530   -3.3155  -10.0861 O   0  0  0  0  0  0  0  0  0  0  0  0
  -14.9691   -5.1989  -11.0970 O   0  0  0  0  0  0  0  0  0  0  0  0
  -14.4241   -3.1880  -12.5900 O   0  0  0  0  0  0  0  0  0  0  0  0
  1  2  1  0
  1 12  1  0
  1 26  1  6
  2  3  1  0
  2  9  1  6
  3  4  1  0
  3 10  1  1
  5  4  1  0
  4 11  1  6
  5  6  1  0
  5 12  1  1
  6 13  1  6
  8  7  1  6
  9  7  1  0
  7 14  2  0
 15 16  1  0
 24 15  1  1
 16 17  1  6
 16 18  1  0
 18 19  1  1
 20 18  1  0
 19 27  1  0
 20 21  1  1
 22 20  1  0
 30 21  1  1
 22 23  1  1
 24 22  1  0
 25 24  1  0
 25 26  1  6
 27 28  2  0
 29 27  1  6
 30 31  1  0
 30 39  1  0
 31 32  1  0
 31 36  1  6
 32 33  1  0
 32 37  1  1
 33 34  1  0
 33 38  1  6
 34 35  1  0
 34 39  1  6
 35 40  1  6
M  END
$$$$
