
     RDKit          3D

 40 42  0  0  0  0  0  0  0  0999 V2000
  -15.7118   30.1270   -3.5541 C   0  0  1  0  0  0  0  0  0  0  0  0
  -15.6576   31.5442   -4.1197 C   0  0  1  0  0  0  0  0  0  0  0  0
  -14.3404   31.8739   -4.7624 C   0  0  2  0  0  0  0  0  0  0  0  0
  -13.5299   30.6007   -4.8495 C   0  0  1  0  0  0  0  0  0  0  0  0
  -14.4325   29.5240   -5.3858 C   0  0  1  0  0  0  0  0  0  0  0  0
  -13.6384   28.3019   -5.8352 C   0  0  0  0  0  0  0  0  0  0  0  0
  -17.6579   32.8740   -4.8903 C   0  0  0  0  0  0  0  0  0  0  0  0
  -18.9909   32.8478   -5.5477 C   0  0  0  0  0  0  0  0  0  0  0  0
  -16.7846   31.7612   -5.0335 N   0  0  0  0  0  0  0  0  0  0  0  0
  -13.5921   32.7922   -4.0011 O   0  0  0  0  0  0  0  0  0  0  0  0
  -12.5322   30.8413   -5.8192 O   0  0  0  0  0  0  0  0  0  0  0  0
  -15.4509   29.1845   -4.5414 O   0  0  0  0  0  0  0  0  0  0  0  0
  -14.4088   27.1460   -5.7930 O   0  0  0  0  0  0  0  0  0  0  0  0
  -17.3255   33.8711   -4.2233 O   0  0  0  0  0  0  0  0  0  0  0  0
  -15.7645   27.1131   -1.7505 O   0  0  0  0  0  0  0  0  0  0  0  0
  -16.0693   26.1024   -0.8757 C   0  0  2  0  0  0  0  0  0  0  0  0
  -17.4204   25.8309   -0.8714 O   0  0  0  0  0  0  0  0  0  0  0  0
  -15.5879   26.5635    0.4752 C   0  0  2  0  0  0  0  0  0  0  0  0
  -15.5378   25.4853    1.4398 N   0  0  0  0  0  0  0  0  0  0  0  0
  -16.4467   27.7043    0.9161 C   0  0  1  0  0  0  0  0  0  0  0  0
  -15.7635   28.4270    1.8398 O   0  0  0  0  0  0  0  0  0  0  0  0
  -17.0888   28.3950   -0.1886 C   0  0  1  0  0  0  0  0  0  0  0  0
  -17.3188   29.7611    0.0221 O   0  0  0  0  0  0  0  0  0  0  0  0
  -16.3099   28.3220   -1.4847 C   0  0  1  0  0  0  0  0  0  0  0  0
  -15.2226   29.3629   -1.3804 C   0  0  0  0  0  0  0  0  0  0  0  0
  -14.9117   30.0686   -2.4780 O   0  0  0  0  0  0  0  0  0  0  0  0
  -15.0974   24.1694    1.1222 C   0  0  0  0  0  0  0  0  0  0  0  0
  -13.8743   23.9126    1.2681 O   0  0  0  0  0  0  0  0  0  0  0  0
  -16.0565   23.1337    0.6335 C   0  0  0  0  0  0  0  0  0  0  0  0
  -16.1977   28.4163    3.1298 C   0  0  1  0  0  0  0  0  0  0  0  0
  -16.3152   29.7983    3.7405 C   0  0  1  0  0  0  0  0  0  0  0  0
  -17.7137   29.9714    4.3450 C   0  0  2  0  0  0  0  0  0  0  0  0
  -17.9463   28.8362    5.3149 C   0  0  2  0  0  0  0  0  0  0  0  0
  -17.5593   27.5170    4.6865 C   0  0  1  0  0  0  0  0  0  0  0  0
  -18.5617   26.4288    4.9988 C   0  0  0  0  0  0  0  0  0  0  0  0
  -15.4235   29.9925    4.7968 O   0  0  0  0  0  0  0  0  0  0  0  0
  -18.6214   29.8417    3.3077 O   0  0  0  0  0  0  0  0  0  0  0  0
  -19.2741   28.7956    5.6955 O   0  0  0  0  0  0  0  0  0  0  0  0
  -17.3653   27.6619    3.3209 O   0  0  0  0  0  0  0  0  0  0  0  0
  -19.4869   26.3720    3.9841 O   0  0  0  0  0  0  0  0  0  0  0  0
  1  2  1  0
  1 12  1  0
  1 26  1  1
  2  3  1  0
  2  9  1  6
  3  4  1  0
  3 10  1  1
  5  4  1  0
  4 11  1  6
  5  6  1  1
 12  5  1  0
  6 13  1  0
  7  8  1  0
  9  7  1  0
  7 14  2  0
 15 16  1  0
 24 15  1  0
 16 17  1  1
 16 18  1  0
 18 19  1  1
 20 18  1  0
 19 27  1  0
 20 21  1  6
 22 20  1  0
 30 21  1  6
 22 23  1  1
 24 22  1  0
 24 25  1  1
 25 26  1  0
 27 28  2  0
 27 29  1  0
 30 31  1  0
 30 39  1  0
 31 32  1  0
 31 36  1  1
 32 33  1  0
 32 37  1  6
 33 34  1  0
 33 38  1  6
 34 35  1  6
 34 39  1  0
 35 40  1  0
M  END
$$$$
