
     RDKit          3D

 40 42  0  0  0  0  0  0  0  0999 V2000
  -15.5303   27.6811   -2.3237 C   0  0  1  0  0  0  0  0  0  0  0  0
  -14.4577   27.8243   -3.3814 C   0  0  1  0  0  0  0  0  0  0  0  0
  -13.9245   26.4763   -3.8167 C   0  0  2  0  0  0  0  0  0  0  0  0
  -14.8727   25.3792   -3.3341 C   0  0  1  0  0  0  0  0  0  0  0  0
  -16.2666   25.8573   -3.5940 C   0  0  1  0  0  0  0  0  0  0  0  0
  -17.2232   24.7031   -3.2458 C   0  0  0  0  0  0  0  0  0  0  0  0
  -14.4456   29.9166   -4.7759 C   0  0  0  0  0  0  0  0  0  0  0  0
  -15.0464   30.6821   -5.9082 C   0  0  0  0  0  0  0  0  0  0  0  0
  -14.9315   28.6180   -4.4981 N   0  0  0  0  0  0  0  0  0  0  0  0
  -12.6981   26.2208   -3.2448 O   0  0  0  0  0  0  0  0  0  0  0  0
  -14.6075   24.1768   -3.9924 O   0  0  0  0  0  0  0  0  0  0  0  0
  -16.5895   26.8893   -2.7721 O   0  0  0  0  0  0  0  0  0  0  0  0
  -17.9555   25.0495   -2.1133 O   0  0  0  0  0  0  0  0  0  0  0  0
  -13.5312   30.4143   -4.0871 O   0  0  0  0  0  0  0  0  0  0  0  0
  -13.5839   28.9027    0.3199 O   0  0  0  0  0  0  0  0  0  0  0  0
  -12.6425   29.5080    1.1511 C   0  0  2  0  0  0  0  0  0  0  0  0
  -12.1203   28.6309    2.0875 O   0  0  0  0  0  0  0  0  0  0  0  0
  -13.3854   30.5763    1.9171 C   0  0  2  0  0  0  0  0  0  0  0  0
  -12.5580   31.5064    2.5825 N   0  0  0  0  0  0  0  0  0  0  0  0
  -14.3272   29.8128    2.8507 C   0  0  1  0  0  0  0  0  0  0  0  0
  -14.8532   30.7344    3.7100 O   0  0  0  0  0  0  0  0  0  0  0  0
  -15.3721   29.2223    1.9032 C   0  0  1  0  0  0  0  0  0  0  0  0
  -16.0236   30.1840    1.1727 O   0  0  0  0  0  0  0  0  0  0  0  0
  -14.5829   28.2705    0.9848 C   0  0  1  0  0  0  0  0  0  0  0  0
  -15.5075   27.5795    0.0254 C   0  0  0  0  0  0  0  0  0  0  0  0
  -14.9925   27.2144   -1.1654 O   0  0  0  0  0  0  0  0  0  0  0  0
  -12.4365   32.8345    2.0871 C   0  0  0  0  0  0  0  0  0  0  0  0
  -13.3464   33.3006    1.3314 O   0  0  0  0  0  0  0  0  0  0  0  0
  -11.3047   33.7294    2.3947 C   0  0  0  0  0  0  0  0  0  0  0  0
  -14.3002   30.7228    4.9922 C   0  0  1  0  0  0  0  0  0  0  0  0
  -14.4494   31.9597    5.7644 C   0  0  1  0  0  0  0  0  0  0  0  0
  -15.4921   31.9876    6.8263 C   0  0  2  0  0  0  0  0  0  0  0  0
  -16.2197   30.6745    7.0036 C   0  0  2  0  0  0  0  0  0  0  0  0
  -15.0952   29.6340    6.8840 C   0  0  1  0  0  0  0  0  0  0  0  0
  -15.7060   28.3217    7.3125 C   0  0  0  0  0  0  0  0  0  0  0  0
  -13.2226   32.2925    6.3947 O   0  0  0  0  0  0  0  0  0  0  0  0
  -16.4860   32.9611    6.5979 O   0  0  0  0  0  0  0  0  0  0  0  0
  -17.1060   30.5575    5.9228 O   0  0  0  0  0  0  0  0  0  0  0  0
  -14.7693   29.5617    5.5724 O   0  0  0  0  0  0  0  0  0  0  0  0
  -15.3096   28.1191    8.6549 O   0  0  0  0  0  0  0  0  0  0  0  0
  1  2  1  0
  1 12  1  0
  1 26  1  1
  2  3  1  0
  2  9  1  6
  3  4  1  0
  3 10  1  1
  5  4  1  0
  4 11  1  6
  5  6  1  0
  5 12  1  1
  6 13  1  6
  8  7  1  6
  9  7  1  0
  7 14  2  0
 15 16  1  0
 24 15  1  6
 16 17  1  1
 16 18  1  0
 18 19  1  1
 20 18  1  0
 19 27  1  0
 20 21  1  1
 22 20  1  0
 30 21  1  6
 22 23  1  6
 24 22  1  0
 25 24  1  0
 25 26  1  6
 27 28  2  0
 29 27  1  6
 30 31  1  0
 30 39  1  0
 31 32  1  0
 31 36  1  1
 32 33  1  0
 32 37  1  6
 33 34  1  0
 33 38  1  6
 34 35  1  0
 34 39  1  6
 35 40  1  6
M  END
$$$$
