
     RDKit          3D

 40 42  0  0  0  0  0  0  0  0999 V2000
  -12.4476   25.5727    4.6853 C   0  0  1  0  0  0  0  0  0  0  0  0
  -11.9197   26.1037    6.0003 C   0  0  1  0  0  0  0  0  0  0  0  0
  -12.7505   25.6176    7.1684 C   0  0  2  0  0  0  0  0  0  0  0  0
  -13.6347   24.4582    6.7105 C   0  0  1  0  0  0  0  0  0  0  0  0
  -12.7878   23.5717    5.8527 C   0  0  1  0  0  0  0  0  0  0  0  0
  -13.6254   22.3283    5.5050 C   0  0  0  0  0  0  0  0  0  0  0  0
   -9.5632   26.7503    6.5930 C   0  0  0  0  0  0  0  0  0  0  0  0
   -8.1144   26.4885    6.3451 C   0  0  0  0  0  0  0  0  0  0  0  0
  -10.5119   25.7963    6.1575 N   0  0  0  0  0  0  0  0  0  0  0  0
  -13.5953   26.6066    7.6208 O   0  0  0  0  0  0  0  0  0  0  0  0
  -14.1524   23.7717    7.8106 O   0  0  0  0  0  0  0  0  0  0  0  0
  -12.4856   24.1768    4.6748 O   0  0  0  0  0  0  0  0  0  0  0  0
  -13.1462   21.7781    4.3191 O   0  0  0  0  0  0  0  0  0  0  0  0
   -9.9301   27.7924    7.1740 O   0  0  0  0  0  0  0  0  0  0  0  0
  -13.4541   28.3054    2.8586 O   0  0  0  0  0  0  0  0  0  0  0  0
  -13.6371   29.5739    2.3099 C   0  0  2  0  0  0  0  0  0  0  0  0
  -14.9176   30.0606    2.5154 O   0  0  0  0  0  0  0  0  0  0  0  0
  -13.4623   29.4146    0.8187 C   0  0  2  0  0  0  0  0  0  0  0  0
  -13.3021   30.6259    0.1121 N   0  0  0  0  0  0  0  0  0  0  0  0
  -14.6697   28.5919    0.3633 C   0  0  1  0  0  0  0  0  0  0  0  0
  -14.6624   28.6150   -1.0019 O   0  0  0  0  0  0  0  0  0  0  0  0
  -14.3925   27.2005    0.9337 C   0  0  1  0  0  0  0  0  0  0  0  0
  -13.2039   26.6771    0.4906 O   0  0  0  0  0  0  0  0  0  0  0  0
  -14.3762   27.3933    2.4617 C   0  0  1  0  0  0  0  0  0  0  0  0
  -14.1590   26.0799    3.1546 C   0  0  0  0  0  0  0  0  0  0  0  0
  -13.6590   26.1231    4.4055 O   0  0  0  0  0  0  0  0  0  0  0  0
  -13.1211   31.8461    0.8207 C   0  0  0  0  0  0  0  0  0  0  0  0
  -12.0304   32.0467    1.4425 O   0  0  0  0  0  0  0  0  0  0  0  0
  -14.1312   32.9193    0.8872 C   0  0  0  0  0  0  0  0  0  0  0  0
  -15.4290   29.6319   -1.5749 C   0  0  1  0  0  0  0  0  0  0  0  0
  -14.8791   30.2406   -2.7895 C   0  0  1  0  0  0  0  0  0  0  0  0
  -15.4699   29.8322   -4.0933 C   0  0  2  0  0  0  0  0  0  0  0  0
  -16.6306   28.8724   -3.9649 C   0  0  2  0  0  0  0  0  0  0  0  0
  -17.4133   29.4304   -2.7659 C   0  0  1  0  0  0  0  0  0  0  0  0
  -18.7218   28.6777   -2.7467 C   0  0  0  0  0  0  0  0  0  0  0  0
  -14.9906   31.6534   -2.7209 O   0  0  0  0  0  0  0  0  0  0  0  0
  -14.5384   29.2117   -4.9507 O   0  0  0  0  0  0  0  0  0  0  0  0
  -16.0832   27.6207   -3.6469 O   0  0  0  0  0  0  0  0  0  0  0  0
  -16.7054   29.1131   -1.6569 O   0  0  0  0  0  0  0  0  0  0  0  0
  -18.3917   27.3058   -2.8429 O   0  0  0  0  0  0  0  0  0  0  0  0
  1  2  1  0
  1 12  1  0
  1 26  1  1
  2  3  1  0
  2  9  1  1
  3  4  1  0
  3 10  1  6
  5  4  1  0
  4 11  1  1
  5  6  1  0
  5 12  1  6
  6 13  1  6
  8  7  1  6
  9  7  1  0
  7 14  2  0
 15 16  1  0
 24 15  1  6
 16 17  1  6
 16 18  1  0
 18 19  1  6
 20 18  1  0
 19 27  1  0
 20 21  1  6
 22 20  1  0
 30 21  1  6
 22 23  1  6
 24 22  1  0
 25 24  1  0
 25 26  1  6
 27 28  2  0
 29 27  1  6
 30 31  1  0
 30 39  1  0
 31 32  1  0
 31 36  1  1
 32 33  1  0
 32 37  1  6
 33 34  1  0
 33 38  1  1
 34 35  1  0
 34 39  1  1
 35 40  1  6
M  END
$$$$
