
     RDKit          3D

 40 42  0  0  0  0  0  0  0  0999 V2000
  -15.0673   32.9365    2.1398 C   0  0  1  0  0  0  0  0  0  0  0  0
  -14.3702   33.9427    3.0294 C   0  0  1  0  0  0  0  0  0  0  0  0
  -13.1489   34.5282    2.3537 C   0  0  2  0  0  0  0  0  0  0  0  0
  -13.1965   34.2074    0.8602 C   0  0  1  0  0  0  0  0  0  0  0  0
  -14.6031   34.4394    0.4054 C   0  0  1  0  0  0  0  0  0  0  0  0
  -14.6300   34.2592   -1.1227 C   0  0  0  0  0  0  0  0  0  0  0  0
  -15.4877   35.2694    4.8496 C   0  0  0  0  0  0  0  0  0  0  0  0
  -16.7298   35.9916    5.2558 C   0  0  0  0  0  0  0  0  0  0  0  0
  -15.2939   34.9638    3.4826 N   0  0  0  0  0  0  0  0  0  0  0  0
  -11.9928   33.9631    2.8444 O   0  0  0  0  0  0  0  0  0  0  0  0
  -12.2885   35.0026    0.1583 O   0  0  0  0  0  0  0  0  0  0  0  0
  -15.4427   33.5043    0.9205 O   0  0  0  0  0  0  0  0  0  0  0  0
  -15.8754   33.7612   -1.4968 O   0  0  0  0  0  0  0  0  0  0  0  0
  -14.6362   34.9416    5.7015 O   0  0  0  0  0  0  0  0  0  0  0  0
  -13.9667   29.2608    2.6908 O   0  0  0  0  0  0  0  0  0  0  0  0
  -13.3965   28.0265    2.9994 C   0  0  2  0  0  0  0  0  0  0  0  0
  -12.1923   27.8209    2.3464 O   0  0  0  0  0  0  0  0  0  0  0  0
  -14.3576   26.9810    2.4869 C   0  0  2  0  0  0  0  0  0  0  0  0
  -14.1202   25.6761    2.9696 N   0  0  0  0  0  0  0  0  0  0  0  0
  -14.2914   27.0944    0.9623 C   0  0  1  0  0  0  0  0  0  0  0  0
  -14.9761   26.0237    0.4633 O   0  0  0  0  0  0  0  0  0  0  0  0
  -14.9817   28.4273    0.6704 C   0  0  1  0  0  0  0  0  0  0  0  0
  -16.2691   28.4682    1.1440 O   0  0  0  0  0  0  0  0  0  0  0  0
  -14.1048   29.4886    1.3608 C   0  0  1  0  0  0  0  0  0  0  0  0
  -14.6495   30.8644    1.1097 C   0  0  0  0  0  0  0  0  0  0  0  0
  -14.2910   31.8322    1.9765 O   0  0  0  0  0  0  0  0  0  0  0  0
  -15.1988   24.8920    3.4651 C   0  0  0  0  0  0  0  0  0  0  0  0
  -16.3903   25.3085    3.3123 O   0  0  0  0  0  0  0  0  0  0  0  0
  -15.0298   23.6011    4.1592 C   0  0  0  0  0  0  0  0  0  0  0  0
  -14.2236   25.1742   -0.3503 C   0  0  1  0  0  0  0  0  0  0  0  0
  -14.5563   23.7490   -0.2681 C   0  0  1  0  0  0  0  0  0  0  0  0
  -15.3660   23.1656   -1.3725 C   0  0  2  0  0  0  0  0  0  0  0  0
  -15.6779   24.1418   -2.4837 C   0  0  2  0  0  0  0  0  0  0  0  0
  -14.3575   24.9093   -2.6543 C   0  0  1  0  0  0  0  0  0  0  0  0
  -14.5148   25.7158   -3.9206 C   0  0  0  0  0  0  0  0  0  0  0  0
  -13.3702   22.9749   -0.1851 O   0  0  0  0  0  0  0  0  0  0  0  0
  -16.6059   22.6551   -0.9370 O   0  0  0  0  0  0  0  0  0  0  0  0
  -16.6773   24.9976   -1.9977 O   0  0  0  0  0  0  0  0  0  0  0  0
  -14.2597   25.7547   -1.6019 O   0  0  0  0  0  0  0  0  0  0  0  0
  -15.3275   26.8241   -3.5866 O   0  0  0  0  0  0  0  0  0  0  0  0
  1  2  1  0
  1 12  1  0
  1 26  1  6
  2  3  1  0
  2  9  1  6
  3  4  1  0
  3 10  1  1
  5  4  1  0
  4 11  1  6
  5  6  1  0
  5 12  1  1
  6 13  1  6
  8  7  1  6
  9  7  1  0
  7 14  2  0
 15 16  1  0
 24 15  1  1
 16 17  1  6
 16 18  1  0
 18 19  1  6
 20 18  1  0
 19 27  1  0
 20 21  1  6
 22 20  1  0
 30 21  1  1
 22 23  1  1
 24 22  1  0
 25 24  1  0
 25 26  1  6
 27 28  2  0
 29 27  1  6
 30 31  1  0
 30 39  1  0
 31 32  1  0
 31 36  1  6
 32 33  1  0
 32 37  1  1
 33 34  1  0
 33 38  1  1
 34 35  1  0
 34 39  1  1
 35 40  1  6
M  END
$$$$
