
     RDKit          3D

 40 42  0  0  0  0  0  0  0  0999 V2000
  -14.8229   27.8631   -1.7220 C   0  0  1  0  0  0  0  0  0  0  0  0
  -15.6943   26.8500   -2.4608 C   0  0  1  0  0  0  0  0  0  0  0  0
  -16.7951   27.4886   -3.2590 C   0  0  2  0  0  0  0  0  0  0  0  0
  -16.5647   28.9827   -3.2633 C   0  0  1  0  0  0  0  0  0  0  0  0
  -15.1125   29.2170   -3.5762 C   0  0  1  0  0  0  0  0  0  0  0  0
  -14.8481   30.6735   -3.9433 C   0  0  0  0  0  0  0  0  0  0  0  0
  -14.8838   24.5608   -3.1430 C   0  0  0  0  0  0  0  0  0  0  0  0
  -13.6847   23.7625   -3.5104 C   0  0  0  0  0  0  0  0  0  0  0  0
  -14.8538   25.9751   -3.2856 N   0  0  0  0  0  0  0  0  0  0  0  0
  -18.0635   27.2650   -2.6898 O   0  0  0  0  0  0  0  0  0  0  0  0
  -17.3195   29.4888   -4.3439 O   0  0  0  0  0  0  0  0  0  0  0  0
  -14.2592   28.7758   -2.6053 O   0  0  0  0  0  0  0  0  0  0  0  0
  -15.2176   31.5358   -2.9180 O   0  0  0  0  0  0  0  0  0  0  0  0
  -15.8975   23.9784   -2.7155 O   0  0  0  0  0  0  0  0  0  0  0  0
  -13.1067   28.6034    1.6894 O   0  0  0  0  0  0  0  0  0  0  0  0
  -12.8793   28.8632    3.0161 C   0  0  2  0  0  0  0  0  0  0  0  0
  -12.9409   27.7125    3.7720 O   0  0  0  0  0  0  0  0  0  0  0  0
  -13.9301   29.8602    3.4299 C   0  0  2  0  0  0  0  0  0  0  0  0
  -13.6297   30.4810    4.7027 N   0  0  0  0  0  0  0  0  0  0  0  0
  -15.2594   29.1777    3.4104 C   0  0  1  0  0  0  0  0  0  0  0  0
  -16.2275   30.1217    3.2931 O   0  0  0  0  0  0  0  0  0  0  0  0
  -15.2924   28.0183    2.5360 C   0  0  1  0  0  0  0  0  0  0  0  0
  -16.5387   27.7533    1.9527 O   0  0  0  0  0  0  0  0  0  0  0  0
  -14.3247   28.1061    1.3751 C   0  0  1  0  0  0  0  0  0  0  0  0
  -14.9863   28.9851    0.3425 C   0  0  0  0  0  0  0  0  0  0  0  0
  -15.5460   28.3986   -0.7260 O   0  0  0  0  0  0  0  0  0  0  0  0
  -12.9828   31.7431    4.8259 C   0  0  0  0  0  0  0  0  0  0  0  0
  -11.7252   31.7526    4.8632 O   0  0  0  0  0  0  0  0  0  0  0  0
  -13.7728   33.0082    4.9077 C   0  0  0  0  0  0  0  0  0  0  0  0
  -17.1992   30.1832    4.2444 C   0  0  1  0  0  0  0  0  0  0  0  0
  -17.6603   31.5945    4.5484 C   0  0  1  0  0  0  0  0  0  0  0  0
  -19.1881   31.6663    4.4394 C   0  0  2  0  0  0  0  0  0  0  0  0
  -19.7706   30.6079    5.3470 C   0  0  2  0  0  0  0  0  0  0  0  0
  -19.0654   29.2871    5.1387 C   0  0  1  0  0  0  0  0  0  0  0  0
  -20.0362   28.1280    5.1154 C   0  0  0  0  0  0  0  0  0  0  0  0
  -17.3588   31.9847    5.8543 O   0  0  0  0  0  0  0  0  0  0  0  0
  -19.5161   31.3400    3.1346 O   0  0  0  0  0  0  0  0  0  0  0  0
  -21.1216   30.4552    5.0997 O   0  0  0  0  0  0  0  0  0  0  0  0
  -18.2807   29.3245    3.9958 O   0  0  0  0  0  0  0  0  0  0  0  0
  -19.3302   26.9599    4.9544 O   0  0  0  0  0  0  0  0  0  0  0  0
  1  2  1  0
  1 12  1  0
  1 26  1  1
  2  3  1  0
  2  9  1  6
  3  4  1  0
  3 10  1  1
  5  4  1  0
  4 11  1  6
  5  6  1  1
 12  5  1  0
  6 13  1  0
  7  8  1  0
  9  7  1  0
  7 14  2  0
 15 16  1  0
 24 15  1  0
 16 17  1  1
 16 18  1  0
 18 19  1  1
 20 18  1  0
 19 27  1  0
 20 21  1  6
 22 20  1  0
 30 21  1  6
 22 23  1  6
 24 22  1  0
 24 25  1  6
 25 26  1  0
 27 28  2  0
 27 29  1  0
 30 31  1  0
 30 39  1  0
 31 32  1  0
 31 36  1  1
 32 33  1  0
 32 37  1  6
 33 34  1  0
 33 38  1  6
 34 35  1  6
 34 39  1  0
 35 40  1  0
M  END
$$$$
