
     RDKit          3D

 40 42  0  0  0  0  0  0  0  0999 V2000
  -13.5849   31.5643    2.0840 C   0  0  1  0  0  0  0  0  0  0  0  0
  -14.5764   32.5611    1.4884 C   0  0  1  0  0  0  0  0  0  0  0  0
  -15.7593   32.8204    2.3773 C   0  0  2  0  0  0  0  0  0  0  0  0
  -15.4920   32.1687    3.7150 C   0  0  1  0  0  0  0  0  0  0  0  0
  -14.0912   32.5313    4.1245 C   0  0  1  0  0  0  0  0  0  0  0  0
  -13.8412   32.2200    5.5965 C   0  0  0  0  0  0  0  0  0  0  0  0
  -13.9826   34.3561   -0.1813 C   0  0  0  0  0  0  0  0  0  0  0  0
  -14.4232   35.7666   -0.3438 C   0  0  0  0  0  0  0  0  0  0  0  0
  -13.8811   33.8002    1.1233 N   0  0  0  0  0  0  0  0  0  0  0  0
  -16.9427   32.2527    1.8671 O   0  0  0  0  0  0  0  0  0  0  0  0
  -16.3749   32.7834    4.6295 O   0  0  0  0  0  0  0  0  0  0  0  0
  -13.1242   31.9963    3.3218 O   0  0  0  0  0  0  0  0  0  0  0  0
  -12.7142   32.8773    6.0753 O   0  0  0  0  0  0  0  0  0  0  0  0
  -13.7086   33.6819   -1.1913 O   0  0  0  0  0  0  0  0  0  0  0  0
  -13.5449   27.7841    2.9183 O   0  0  0  0  0  0  0  0  0  0  0  0
  -13.9036   26.4619    2.9690 C   0  0  2  0  0  0  0  0  0  0  0  0
  -12.8075   25.6376    2.8335 O   0  0  0  0  0  0  0  0  0  0  0  0
  -14.8969   26.2582    1.8550 C   0  0  2  0  0  0  0  0  0  0  0  0
  -15.6138   25.0067    1.9780 N   0  0  0  0  0  0  0  0  0  0  0  0
  -14.1771   26.3953    0.5525 C   0  0  1  0  0  0  0  0  0  0  0  0
  -15.0826   26.7026   -0.4108 O   0  0  0  0  0  0  0  0  0  0  0  0
  -12.9587   27.1795    0.6539 C   0  0  1  0  0  0  0  0  0  0  0  0
  -12.6180   27.8944   -0.5021 O   0  0  0  0  0  0  0  0  0  0  0  0
  -12.9923   28.2123    1.7604 C   0  0  1  0  0  0  0  0  0  0  0  0
  -13.7774   29.3817    1.2195 C   0  0  0  0  0  0  0  0  0  0  0  0
  -14.1493   30.3465    2.0739 O   0  0  0  0  0  0  0  0  0  0  0  0
  -15.0446   23.7424    1.6552 C   0  0  0  0  0  0  0  0  0  0  0  0
  -15.7751   22.9089    1.0595 O   0  0  0  0  0  0  0  0  0  0  0  0
  -13.6303   23.4210    2.0130 C   0  0  0  0  0  0  0  0  0  0  0  0
  -15.3532   25.7781   -1.3724 C   0  0  1  0  0  0  0  0  0  0  0  0
  -16.7964   25.7902   -1.8349 C   0  0  1  0  0  0  0  0  0  0  0  0
  -16.8410   25.8956   -3.3639 C   0  0  2  0  0  0  0  0  0  0  0  0
  -16.0102   24.7690   -3.9334 C   0  0  2  0  0  0  0  0  0  0  0  0
  -14.6768   24.6865   -3.2262 C   0  0  1  0  0  0  0  0  0  0  0  0
  -13.5406   24.4409   -4.1934 C   0  0  0  0  0  0  0  0  0  0  0  0
  -17.4672   24.6071   -1.5208 O   0  0  0  0  0  0  0  0  0  0  0  0
  -16.2326   27.0915   -3.7047 O   0  0  0  0  0  0  0  0  0  0  0  0
  -15.8054   24.9614   -5.2864 O   0  0  0  0  0  0  0  0  0  0  0  0
  -14.4599   25.8177   -2.4538 O   0  0  0  0  0  0  0  0  0  0  0  0
  -12.3760   24.2841   -3.4808 O   0  0  0  0  0  0  0  0  0  0  0  0
  1  2  1  0
  1 12  1  0
  1 26  1  1
  2  3  1  0
  2  9  1  1
  3  4  1  0
  3 10  1  6
  5  4  1  0
  4 11  1  1
  5  6  1  1
 12  5  1  0
  6 13  1  0
  7  8  1  0
  9  7  1  0
  7 14  2  0
 15 16  1  0
 24 15  1  0
 16 17  1  6
 16 18  1  0
 18 19  1  1
 20 18  1  0
 19 27  1  0
 20 21  1  6
 22 20  1  0
 30 21  1  1
 22 23  1  6
 24 22  1  0
 24 25  1  6
 25 26  1  0
 27 28  2  0
 27 29  1  0
 30 31  1  0
 30 39  1  0
 31 32  1  0
 31 36  1  6
 32 33  1  0
 32 37  1  1
 33 34  1  0
 33 38  1  6
 34 35  1  6
 34 39  1  0
 35 40  1  0
M  END
$$$$
