
     RDKit          3D

 40 42  0  0  0  0  0  0  0  0999 V2000
  -13.3236   26.9200    5.5429 C   0  0  1  0  0  0  0  0  0  0  0  0
  -13.9567   27.2805    6.8692 C   0  0  1  0  0  0  0  0  0  0  0  0
  -15.3313   26.6635    7.0136 C   0  0  2  0  0  0  0  0  0  0  0  0
  -15.5107   25.5780    5.9527 C   0  0  1  0  0  0  0  0  0  0  0  0
  -14.2367   24.7946    5.9055 C   0  0  1  0  0  0  0  0  0  0  0  0
  -14.4571   23.6119    4.9459 C   0  0  0  0  0  0  0  0  0  0  0  0
  -12.6340   27.8948    8.9174 C   0  0  0  0  0  0  0  0  0  0  0  0
  -11.5062   27.5329    9.8263 C   0  0  0  0  0  0  0  0  0  0  0  0
  -13.0802   26.9417    7.9729 N   0  0  0  0  0  0  0  0  0  0  0  0
  -16.3189   27.5982    6.7961 O   0  0  0  0  0  0  0  0  0  0  0  0
  -16.6050   24.7673    6.2605 O   0  0  0  0  0  0  0  0  0  0  0  0
  -13.2272   25.5364    5.3806 O   0  0  0  0  0  0  0  0  0  0  0  0
  -13.7326   23.8366    3.7783 O   0  0  0  0  0  0  0  0  0  0  0  0
  -13.1730   29.0184    8.9903 O   0  0  0  0  0  0  0  0  0  0  0  0
  -13.4549   29.8736    2.6568 O   0  0  0  0  0  0  0  0  0  0  0  0
  -13.9752   30.9142    1.8887 C   0  0  2  0  0  0  0  0  0  0  0  0
  -15.3581   30.9729    1.9430 O   0  0  0  0  0  0  0  0  0  0  0  0
  -13.6051   30.6045    0.4580 C   0  0  2  0  0  0  0  0  0  0  0  0
  -13.7676   31.6825   -0.4386 N   0  0  0  0  0  0  0  0  0  0  0  0
  -14.4326   29.3702    0.0923 C   0  0  1  0  0  0  0  0  0  0  0  0
  -14.2916   29.1935   -1.2542 O   0  0  0  0  0  0  0  0  0  0  0  0
  -13.7866   28.2496    0.9077 C   0  0  1  0  0  0  0  0  0  0  0  0
  -12.4539   28.0912    0.6214 O   0  0  0  0  0  0  0  0  0  0  0  0
  -13.9912   28.6593    2.3782 C   0  0  1  0  0  0  0  0  0  0  0  0
  -13.4393   27.6094    3.2978 C   0  0  0  0  0  0  0  0  0  0  0  0
  -13.9967   27.5129    4.5212 O   0  0  0  0  0  0  0  0  0  0  0  0
  -12.9961   32.8667   -0.2768 C   0  0  0  0  0  0  0  0  0  0  0  0
  -12.1597   32.9369    0.6783 O   0  0  0  0  0  0  0  0  0  0  0  0
  -13.0994   34.0455   -1.1578 C   0  0  0  0  0  0  0  0  0  0  0  0
  -15.4441   29.4438   -2.0021 C   0  0  1  0  0  0  0  0  0  0  0  0
  -15.2300   29.7985   -3.4080 C   0  0  1  0  0  0  0  0  0  0  0  0
  -15.4766   28.7447   -4.4299 C   0  0  2  0  0  0  0  0  0  0  0  0
  -15.9927   27.4450   -3.8558 C   0  0  2  0  0  0  0  0  0  0  0  0
  -16.9994   27.9094   -2.7916 C   0  0  1  0  0  0  0  0  0  0  0  0
  -17.7434   26.6675   -2.3639 C   0  0  0  0  0  0  0  0  0  0  0  0
  -16.0466   30.9033   -3.7625 O   0  0  0  0  0  0  0  0  0  0  0  0
  -14.3245   28.4170   -5.1735 O   0  0  0  0  0  0  0  0  0  0  0  0
  -14.8990   26.8130   -3.2462 O   0  0  0  0  0  0  0  0  0  0  0  0
  -16.2751   28.3720   -1.7460 O   0  0  0  0  0  0  0  0  0  0  0  0
  -17.9228   26.7745   -0.9651 O   0  0  0  0  0  0  0  0  0  0  0  0
  1  2  1  0
  1 12  1  0
  1 26  1  6
  2  3  1  0
  2  9  1  1
  3  4  1  0
  3 10  1  6
  5  4  1  0
  4 11  1  1
  5  6  1  0
  5 12  1  6
  6 13  1  6
  8  7  1  6
  9  7  1  0
  7 14  2  0
 15 16  1  0
 24 15  1  6
 16 17  1  6
 16 18  1  0
 18 19  1  6
 20 18  1  0
 19 27  1  0
 20 21  1  6
 22 20  1  0
 30 21  1  6
 22 23  1  6
 24 22  1  0
 25 24  1  0
 25 26  1  6
 27 28  2  0
 29 27  1  6
 30 31  1  0
 30 39  1  0
 31 32  1  0
 31 36  1  6
 32 33  1  0
 32 37  1  1
 33 34  1  0
 33 38  1  1
 34 35  1  0
 34 39  1  1
 35 40  1  6
M  END
$$$$
