
     RDKit          3D

 42 45  0  0  0  0  0  0  0  0999 V2000
   70.5152   57.0547   16.0681 C   0  0  1  0  0  0  0  0  0  0  0  0
   70.5974   57.9677   17.3262 C   0  0  2  0  0  0  0  0  0  0  0  0
   72.7583   58.1724   18.5514 C   0  0  0  0  0  0  0  0  0  0  0  0
   74.8933   58.9125   19.3451 C   0  0  1  0  0  0  0  0  0  0  0  0
   75.6591   59.8666   18.4904 C   0  0  0  0  0  0  0  0  0  0  0  0
   74.8733   61.1213   20.1583 C   0  0  1  0  0  0  0  0  0  0  0  0
   72.7253   61.7271   20.0365 C   0  0  0  0  0  0  0  0  0  0  0  0
   69.7940   59.2105   17.0880 C   0  0  0  0  0  0  0  0  0  0  0  0
   72.9694   50.0945   13.7698 C   0  0  0  0  0  0  0  0  0  0  0  0
   74.0465   50.9592   14.3764 C   0  0  0  0  0  0  0  0  0  0  0  0
   73.5426   52.3879   14.3778 C   0  0  0  0  0  0  0  0  0  0  0  0
   72.2871   52.5540   15.1763 C   0  0  2  0  0  0  0  0  0  0  0  0
   71.2939   51.4860   15.0955 C   0  0  0  0  0  0  0  0  0  0  0  0
   71.7777   50.1478   14.6355 C   0  0  0  0  0  0  0  0  0  0  0  0
   69.1234   53.8708   14.9298 C   0  0  0  0  0  0  0  0  0  0  0  0
   69.9321   55.7454   16.2341 C   0  0  0  0  0  0  0  0  0  0  0  0
   74.0849   59.8184   20.2454 C   0  0  1  0  0  0  0  0  0  0  0  0
   72.7653   60.2313   19.6988 C   0  0  0  0  0  0  0  0  0  0  0  0
   68.8333   59.5941   18.1670 C   0  0  0  0  0  0  0  0  0  0  0  0
   69.2250   59.2608   19.5588 C   0  0  0  0  0  0  0  0  0  0  0  0
   69.1229   60.4705   20.4909 C   0  0  0  0  0  0  0  0  0  0  0  0
   67.8203   61.1879   20.4118 C   0  0  0  0  0  0  0  0  0  0  0  0
   67.3371   61.3543   18.9926 C   0  0  0  0  0  0  0  0  0  0  0  0
   68.5205   61.0971   18.0771 C   0  0  0  0  0  0  0  0  0  0  0  0
   72.2834   47.7243   13.1859 C   0  0  0  0  0  0  0  0  0  0  0  0
   66.5951   52.3601   15.1662 C   0  0  0  0  0  0  0  0  0  0  0  0
   67.8528   54.3912   14.4512 C   0  0  2  0  0  0  0  0  0  0  0  0
   66.5401   53.8185   14.8228 C   0  0  0  0  0  0  0  0  0  0  0  0
   67.7786   54.5322   12.9043 C   0  0  0  0  0  0  0  0  0  0  0  0
   73.3814   48.6771   13.5077 C   0  0  1  0  0  0  0  0  0  0  0  0
   70.1750   54.6791   15.2704 N   0  0  0  0  0  0  0  0  0  0  0  0
   72.0449   58.2975   17.3497 N   0  0  0  0  0  0  0  0  0  0  0  0
   72.4701   54.8470   16.5701 O   0  0  0  0  0  0  0  0  0  0  0  0
   72.5021   54.9597   14.1749 O   0  0  0  0  0  0  0  0  0  0  0  0
   69.5266   57.8554   15.3383 O   0  0  0  0  0  0  0  0  0  0  0  0
   72.0601   58.2488   19.6253 O   0  0  0  0  0  0  0  0  0  0  0  0
   74.1206   57.9773   18.6581 O   0  0  0  0  0  0  0  0  0  0  0  0
   75.2876   61.1561   18.8414 O   0  0  0  0  0  0  0  0  0  0  0  0
   73.9636   62.0881   20.4849 O   0  0  0  0  0  0  0  0  0  0  0  0
   74.2720   48.6475   12.4019 O   0  0  0  0  0  0  0  0  0  0  0  0
   71.9717   47.6643   11.8316 O   0  0  0  0  0  0  0  0  0  0  0  0
   71.7795   54.1925   15.3276 S   0  0  1  0  0  6  0  0  0  0  0  0
  1  2  1  0
 16  1  1  0
  1 35  1  6
  2  8  1  6
  2 32  1  0
 32  3  1  0
  3 36  2  0
  3 37  1  0
  4  5  1  0
  4 17  1  0
  4 37  1  6
  5 38  1  0
 17  6  1  0
  6 38  1  6
  6 39  1  0
 18  7  1  0
  7 39  1  0
  8 19  1  0
 10  9  1  0
 14  9  1  0
  9 30  1  0
 11 10  1  0
 12 11  1  6
 12 13  1  0
 42 12  1  0
 13 14  1  0
 15 27  1  0
 31 15  1  0
 31 16  1  0
 17 18  1  6
 19 20  1  0
 19 24  1  0
 20 21  1  0
 21 22  1  0
 23 22  1  0
 24 23  1  0
 30 25  1  0
 25 41  1  0
 28 26  1  0
 27 28  1  0
 27 29  1  6
 30 40  1  6
 42 31  1  1
 42 33  2  0
 42 34  2  0
M  END
$$$$
