
     RDKit          3D

 42 45  0  0  0  0  0  0  0  0999 V2000
   69.9531   57.4748   15.8436 C   0  0  1  0  0  0  0  0  0  0  0  0
   71.4852   57.2045   15.7913 C   0  0  2  0  0  0  0  0  0  0  0  0
   73.0120   57.2922   17.7594 C   0  0  0  0  0  0  0  0  0  0  0  0
   74.7203   57.3369   19.4375 C   0  0  1  0  0  0  0  0  0  0  0  0
   75.7560   57.8436   18.4900 C   0  0  0  0  0  0  0  0  0  0  0  0
   75.5704   59.4521   20.0236 C   0  0  1  0  0  0  0  0  0  0  0  0
   73.8089   60.8160   19.8437 C   0  0  0  0  0  0  0  0  0  0  0  0
   71.7439   55.9875   14.9554 C   0  0  0  0  0  0  0  0  0  0  0  0
   68.4790   62.9652   21.2299 C   0  0  0  0  0  0  0  0  0  0  0  0
   69.4145   61.8978   21.7408 C   0  0  0  0  0  0  0  0  0  0  0  0
   69.5443   60.8444   20.6598 C   0  0  0  0  0  0  0  0  0  0  0  0
   70.0974   61.3962   19.3826 C   0  0  2  0  0  0  0  0  0  0  0  0
   69.6548   62.7286   18.9798 C   0  0  0  0  0  0  0  0  0  0  0  0
   69.0917   63.6057   20.0522 C   0  0  0  0  0  0  0  0  0  0  0  0
   67.9207   59.1419   17.9875 C   0  0  0  0  0  0  0  0  0  0  0  0
   69.5249   58.8047   16.2035 C   0  0  0  0  0  0  0  0  0  0  0  0
   74.3513   58.5618   20.2427 C   0  0  1  0  0  0  0  0  0  0  0  0
   73.2660   59.3933   19.6586 C   0  0  0  0  0  0  0  0  0  0  0  0
   73.1769   55.6761   14.6661 C   0  0  0  0  0  0  0  0  0  0  0  0
   74.0495   55.4025   15.8345 C   0  0  0  0  0  0  0  0  0  0  0  0
   74.8276   54.0937   15.6780 C   0  0  0  0  0  0  0  0  0  0  0  0
   75.5432   53.9662   14.3782 C   0  0  0  0  0  0  0  0  0  0  0  0
   74.7078   54.4285   13.2105 C   0  0  0  0  0  0  0  0  0  0  0  0
   73.2666   54.4973   13.6825 C   0  0  0  0  0  0  0  0  0  0  0  0
   67.5411   65.2692   21.7214 C   0  0  0  0  0  0  0  0  0  0  0  0
   66.0647   55.9949   19.2084 C   0  0  0  0  0  0  0  0  0  0  0  0
   67.1282   57.9239   18.0396 C   0  0  2  0  0  0  0  0  0  0  0  0
   67.2441   56.9159   19.1165 C   0  0  0  0  0  0  0  0  0  0  0  0
   67.1845   57.0859   16.7309 C   0  0  0  0  0  0  0  0  0  0  0  0
   68.0808   63.9869   22.2521 C   0  0  1  0  0  0  0  0  0  0  0  0
   69.2300   59.1585   17.5865 N   0  0  0  0  0  0  0  0  0  0  0  0
   71.7756   56.9102   17.2173 N   0  0  0  0  0  0  0  0  0  0  0  0
   71.1950   60.8239   16.9948 O   0  0  0  0  0  0  0  0  0  0  0  0
   71.5126   59.2765   18.7990 O   0  0  0  0  0  0  0  0  0  0  0  0
   69.7047   57.3381   14.4046 O   0  0  0  0  0  0  0  0  0  0  0  0
   73.5996   58.2710   17.1736 O   0  0  0  0  0  0  0  0  0  0  0  0
   73.6245   56.7068   18.8493 O   0  0  0  0  0  0  0  0  0  0  0  0
   75.9147   59.2040   18.7094 O   0  0  0  0  0  0  0  0  0  0  0  0
   75.1083   60.7183   20.2520 O   0  0  0  0  0  0  0  0  0  0  0  0
   67.0678   63.4423   23.0852 O   0  0  0  0  0  0  0  0  0  0  0  0
   66.2701   65.1564   21.1676 O   0  0  0  0  0  0  0  0  0  0  0  0
   70.4048   60.1934   18.1894 S   0  0  1  0  0  6  0  0  0  0  0  0
  1  2  1  0
 16  1  1  0
  1 35  1  6
  2  8  1  6
  2 32  1  0
 32  3  1  0
  3 36  2  0
  3 37  1  0
  4  5  1  0
  4 17  1  0
  4 37  1  6
  5 38  1  0
 17  6  1  0
  6 38  1  6
  6 39  1  0
 18  7  1  0
  7 39  1  0
  8 19  1  0
 10  9  1  0
 14  9  1  0
  9 30  1  0
 11 10  1  0
 12 11  1  1
 12 13  1  0
 42 12  1  0
 13 14  1  0
 15 27  1  0
 31 15  1  0
 31 16  1  0
 17 18  1  6
 19 20  1  0
 19 24  1  0
 20 21  1  0
 21 22  1  0
 23 22  1  0
 24 23  1  0
 30 25  1  0
 25 41  1  0
 28 26  1  0
 27 28  1  0
 27 29  1  6
 30 40  1  1
 42 31  1  6
 42 33  2  0
 42 34  2  0
M  END
$$$$
