
     RDKit          3D

 42 45  0  0  0  0  0  0  0  0999 V2000
   71.5167   57.3636   15.4914 C   0  0  1  0  0  0  0  0  0  0  0  0
   71.1655   57.6200   16.9860 C   0  0  2  0  0  0  0  0  0  0  0  0
   73.2404   57.9077   18.3368 C   0  0  0  0  0  0  0  0  0  0  0  0
   74.3751   59.2897   19.9301 C   0  0  1  0  0  0  0  0  0  0  0  0
   75.1394   59.8065   18.7571 C   0  0  0  0  0  0  0  0  0  0  0  0
   74.7436   61.6134   20.0030 C   0  0  1  0  0  0  0  0  0  0  0  0
   72.6933   62.4941   19.8761 C   0  0  0  0  0  0  0  0  0  0  0  0
   69.9067   58.4297   17.0659 C   0  0  0  0  0  0  0  0  0  0  0  0
   67.7815   51.4648   13.6932 C   0  0  0  0  0  0  0  0  0  0  0  0
   67.9939   51.4320   15.1863 C   0  0  0  0  0  0  0  0  0  0  0  0
   69.0735   52.4413   15.5193 C   0  0  0  0  0  0  0  0  0  0  0  0
   68.7014   53.8349   15.1177 C   0  0  2  0  0  0  0  0  0  0  0  0
   67.9854   54.0011   13.8555 C   0  0  0  0  0  0  0  0  0  0  0  0
   67.2788   52.7982   13.3168 C   0  0  0  0  0  0  0  0  0  0  0  0
   72.1317   53.6793   15.1284 C   0  0  0  0  0  0  0  0  0  0  0  0
   72.1333   56.1018   15.1606 C   0  0  0  0  0  0  0  0  0  0  0  0
   73.8128   60.5422   20.5626 C   0  0  1  0  0  0  0  0  0  0  0  0
   72.4974   60.9801   20.0258 C   0  0  0  0  0  0  0  0  0  0  0  0
   69.6507   59.1283   18.3623 C   0  0  0  0  0  0  0  0  0  0  0  0
   68.4944   60.0573   18.4028 C   0  0  0  0  0  0  0  0  0  0  0  0
   67.5652   59.7685   19.5843 C   0  0  0  0  0  0  0  0  0  0  0  0
   68.2663   59.6589   20.8937 C   0  0  0  0  0  0  0  0  0  0  0  0
   69.5465   58.8668   20.7994 C   0  0  0  0  0  0  0  0  0  0  0  0
   69.5078   58.0953   19.4926 C   0  0  0  0  0  0  0  0  0  0  0  0
   65.7703   50.8276   12.2866 C   0  0  0  0  0  0  0  0  0  0  0  0
   73.5252   51.0109   14.9033 C   0  0  0  0  0  0  0  0  0  0  0  0
   73.5620   53.4740   15.2908 C   0  0  2  0  0  0  0  0  0  0  0  0
   74.1710   52.1641   15.6110 C   0  0  0  0  0  0  0  0  0  0  0  0
   74.2229   54.4544   16.3008 C   0  0  0  0  0  0  0  0  0  0  0  0
   66.8862   50.3837   13.1667 C   0  0  1  0  0  0  0  0  0  0  0  0
   71.5006   54.8347   15.5055 N   0  0  0  0  0  0  0  0  0  0  0  0
   72.3242   58.4418   17.4182 N   0  0  0  0  0  0  0  0  0  0  0  0
   69.4374   56.4208   15.0450 O   0  0  0  0  0  0  0  0  0  0  0  0
   69.5421   55.2613   17.1413 O   0  0  0  0  0  0  0  0  0  0  0  0
   70.1366   57.2879   15.0006 O   0  0  0  0  0  0  0  0  0  0  0  0
   73.9729   56.9485   17.9008 O   0  0  0  0  0  0  0  0  0  0  0  0
   73.4066   58.3296   19.6406 O   0  0  0  0  0  0  0  0  0  0  0  0
   74.9847   61.1842   18.7127 O   0  0  0  0  0  0  0  0  0  0  0  0
   74.0152   62.7675   20.0825 O   0  0  0  0  0  0  0  0  0  0  0  0
   67.6588   49.4704   12.4012 O   0  0  0  0  0  0  0  0  0  0  0  0
   65.0873   49.7811   11.6758 O   0  0  0  0  0  0  0  0  0  0  0  0
   69.8381   55.0242   15.6263 S   0  0  1  0  0  6  0  0  0  0  0  0
  1  2  1  0
 16  1  1  0
  1 35  1  6
  2  8  1  6
  2 32  1  0
 32  3  1  0
  3 36  2  0
  3 37  1  0
  4  5  1  0
  4 17  1  0
  4 37  1  6
  5 38  1  0
 17  6  1  0
  6 38  1  6
  6 39  1  0
 18  7  1  0
  7 39  1  0
  8 19  1  0
 10  9  1  0
 14  9  1  0
  9 30  1  0
 11 10  1  0
 12 11  1  6
 12 13  1  0
 42 12  1  0
 13 14  1  0
 15 27  1  0
 31 15  1  0
 31 16  1  0
 17 18  1  6
 19 20  1  0
 19 24  1  0
 20 21  1  0
 21 22  1  0
 23 22  1  0
 24 23  1  0
 30 25  1  0
 25 41  1  0
 28 26  1  0
 27 28  1  0
 27 29  1  1
 30 40  1  6
 42 31  1  1
 42 33  2  0
 42 34  2  0
M  END
$$$$
