
     RDKit          3D

 42 45  0  0  0  0  0  0  0  0999 V2000
   72.1062   56.3845   16.8660 C   0  0  1  0  0  0  0  0  0  0  0  0
   72.3870   57.9139   16.9364 C   0  0  2  0  0  0  0  0  0  0  0  0
   73.7511   58.4225   18.9596 C   0  0  0  0  0  0  0  0  0  0  0  0
   75.4886   58.9600   20.5180 C   0  0  1  0  0  0  0  0  0  0  0  0
   76.4407   59.6453   19.5955 C   0  0  0  0  0  0  0  0  0  0  0  0
   75.7072   61.2649   20.9419 C   0  0  1  0  0  0  0  0  0  0  0  0
   73.6776   62.0936   20.5064 C   0  0  0  0  0  0  0  0  0  0  0  0
   72.5513   58.4505   15.5465 C   0  0  0  0  0  0  0  0  0  0  0  0
   67.4305   59.7012   21.2591 C   0  0  0  0  0  0  0  0  0  0  0  0
   67.7561   60.4785   20.0080 C   0  0  0  0  0  0  0  0  0  0  0  0
   68.9223   59.7897   19.3293 C   0  0  0  0  0  0  0  0  0  0  0  0
   68.6124   58.3753   18.9487 C   0  0  2  0  0  0  0  0  0  0  0  0
   67.8124   57.5885   19.8839 C   0  0  0  0  0  0  0  0  0  0  0  0
   66.9885   58.3491   20.8734 C   0  0  0  0  0  0  0  0  0  0  0  0
   68.4813   56.4404   16.0290 C   0  0  0  0  0  0  0  0  0  0  0  0
   70.8397   55.9659   16.3161 C   0  0  0  0  0  0  0  0  0  0  0  0
   74.7442   60.1037   21.1679 C   0  0  1  0  0  0  0  0  0  0  0  0
   73.5392   60.5678   20.4309 C   0  0  0  0  0  0  0  0  0  0  0  0
   73.5586   59.5413   15.3733 C   0  0  0  0  0  0  0  0  0  0  0  0
   74.0317   59.7994   13.9909 C   0  0  0  0  0  0  0  0  0  0  0  0
   73.9217   61.2782   13.6116 C   0  0  0  0  0  0  0  0  0  0  0  0
   74.5198   62.2061   14.6112 C   0  0  0  0  0  0  0  0  0  0  0  0
   74.1856   61.8202   16.0306 C   0  0  0  0  0  0  0  0  0  0  0  0
   73.0194   60.8499   15.9747 C   0  0  0  0  0  0  0  0  0  0  0  0
   66.7625   61.7353   22.6179 C   0  0  0  0  0  0  0  0  0  0  0  0
   65.8274   56.3717   14.8461 C   0  0  0  0  0  0  0  0  0  0  0  0
   67.9406   55.2083   15.4778 C   0  0  2  0  0  0  0  0  0  0  0  0
   66.5474   55.0657   15.0005 C   0  0  0  0  0  0  0  0  0  0  0  0
   68.1550   53.9685   16.3917 C   0  0  0  0  0  0  0  0  0  0  0  0
   66.4278   60.3589   22.1588 C   0  0  1  0  0  0  0  0  0  0  0  0
   69.5787   56.4681   16.8477 N   0  0  0  0  0  0  0  0  0  0  0  0
   73.6917   57.9359   17.6450 N   0  0  0  0  0  0  0  0  0  0  0  0
   70.8376   58.7058   17.4745 O   0  0  0  0  0  0  0  0  0  0  0  0
   70.7881   56.9319   19.0874 O   0  0  0  0  0  0  0  0  0  0  0  0
   73.1187   56.0698   15.8526 O   0  0  0  0  0  0  0  0  0  0  0  0
   72.8838   59.3185   19.2626 O   0  0  0  0  0  0  0  0  0  0  0  0
   74.6508   58.0166   19.9246 O   0  0  0  0  0  0  0  0  0  0  0  0
   76.2225   61.0121   19.6858 O   0  0  0  0  0  0  0  0  0  0  0  0
   74.9152   62.3773   21.0089 O   0  0  0  0  0  0  0  0  0  0  0  0
   65.1849   60.4567   21.4786 O   0  0  0  0  0  0  0  0  0  0  0  0
   67.9292   61.8068   23.3719 O   0  0  0  0  0  0  0  0  0  0  0  0
   69.8609   57.6191   18.0351 S   0  0  1  0  0  6  0  0  0  0  0  0
  1  2  1  0
 16  1  1  0
  1 35  1  6
  2  8  1  6
  2 32  1  0
 32  3  1  0
  3 36  2  0
  3 37  1  0
  4  5  1  0
  4 17  1  0
  4 37  1  6
  5 38  1  0
 17  6  1  0
  6 38  1  6
  6 39  1  0
 18  7  1  0
  7 39  1  0
  8 19  1  0
 10  9  1  0
 14  9  1  0
  9 30  1  0
 11 10  1  0
 12 11  1  1
 12 13  1  0
 42 12  1  0
 13 14  1  0
 15 27  1  0
 31 15  1  0
 31 16  1  0
 17 18  1  6
 19 20  1  0
 19 24  1  0
 20 21  1  0
 21 22  1  0
 23 22  1  0
 24 23  1  0
 30 25  1  0
 25 41  1  0
 28 26  1  0
 27 28  1  0
 27 29  1  1
 30 40  1  6
 42 31  1  6
 42 33  2  0
 42 34  2  0
M  END
$$$$
