
     RDKit          3D

 42 45  0  0  0  0  0  0  0  0999 V2000
   70.5648   56.8636   15.1831 C   0  0  1  0  0  0  0  0  0  0  0  0
   70.5542   57.3340   16.6669 C   0  0  2  0  0  0  0  0  0  0  0  0
   72.7487   56.9084   17.7694 C   0  0  0  0  0  0  0  0  0  0  0  0
   73.5446   58.7380   19.0943 C   0  0  1  0  0  0  0  0  0  0  0  0
   74.2955   59.0892   20.3353 C   0  0  0  0  0  0  0  0  0  0  0  0
   74.6151   60.8311   18.9797 C   0  0  1  0  0  0  0  0  0  0  0  0
   76.1318   60.5791   17.3574 C   0  0  0  0  0  0  0  0  0  0  0  0
   69.7150   58.5701   16.7873 C   0  0  0  0  0  0  0  0  0  0  0  0
   72.5117   49.4902   16.3871 C   0  0  0  0  0  0  0  0  0  0  0  0
   71.0941   49.7323   16.8423 C   0  0  0  0  0  0  0  0  0  0  0  0
   70.8962   51.2301   16.9529 C   0  0  0  0  0  0  0  0  0  0  0  0
   71.1091   51.9360   15.6499 C   0  0  2  0  0  0  0  0  0  0  0  0
   72.1940   51.4577   14.7968 C   0  0  0  0  0  0  0  0  0  0  0  0
   72.6796   50.0643   15.0400 C   0  0  0  0  0  0  0  0  0  0  0  0
   69.6580   53.9449   13.2496 C   0  0  0  0  0  0  0  0  0  0  0  0
   69.6722   55.7897   14.8200 C   0  0  0  0  0  0  0  0  0  0  0  0
   74.0586   59.7329   18.0791 C   0  0  1  0  0  0  0  0  0  0  0  0
   75.2771   59.3053   17.3424 C   0  0  0  0  0  0  0  0  0  0  0  0
   69.5491   59.1254   18.1651 C   0  0  0  0  0  0  0  0  0  0  0  0
   68.9147   60.4623   18.2739 C   0  0  0  0  0  0  0  0  0  0  0  0
   67.7520   60.4684   19.2693 C   0  0  0  0  0  0  0  0  0  0  0  0
   68.0859   59.8762   20.5943 C   0  0  0  0  0  0  0  0  0  0  0  0
   68.8983   58.6110   20.4739 C   0  0  0  0  0  0  0  0  0  0  0  0
   68.7741   58.1265   19.0406 C   0  0  0  0  0  0  0  0  0  0  0  0
   72.7291   47.3338   17.7033 C   0  0  0  0  0  0  0  0  0  0  0  0
   68.9846   53.2497   10.3816 C   0  0  0  0  0  0  0  0  0  0  0  0
   68.6559   54.6188   12.4397 C   0  0  2  0  0  0  0  0  0  0  0  0
   68.6423   54.5897   10.9605 C   0  0  0  0  0  0  0  0  0  0  0  0
   68.4795   56.1237   12.7891 C   0  0  0  0  0  0  0  0  0  0  0  0
   72.9398   48.0538   16.4171 C   0  0  1  0  0  0  0  0  0  0  0  0
   70.1809   54.4930   14.3905 N   0  0  0  0  0  0  0  0  0  0  0  0
   71.9853   57.6717   16.8732 N   0  0  0  0  0  0  0  0  0  0  0  0
   69.8218   53.9118   16.9435 O   0  0  0  0  0  0  0  0  0  0  0  0
   72.0538   54.3186   16.1669 O   0  0  0  0  0  0  0  0  0  0  0  0
   69.9915   58.0862   14.6105 O   0  0  0  0  0  0  0  0  0  0  0  0
   72.5682   55.6391   17.7156 O   0  0  0  0  0  0  0  0  0  0  0  0
   73.6565   57.4116   18.6795 O   0  0  0  0  0  0  0  0  0  0  0  0
   75.1620   60.1304   20.0366 O   0  0  0  0  0  0  0  0  0  0  0  0
   75.5345   61.4740   18.1984 O   0  0  0  0  0  0  0  0  0  0  0  0
   72.2154   47.3310   15.4323 O   0  0  0  0  0  0  0  0  0  0  0  0
   73.8490   47.3199   18.5283 O   0  0  0  0  0  0  0  0  0  0  0  0
   70.7363   53.6162   15.7085 S   0  0  1  0  0  6  0  0  0  0  0  0
  1  2  1  0
 16  1  1  0
  1 35  1  6
  2  8  1  6
  2 32  1  0
 32  3  1  0
  3 36  2  0
  3 37  1  0
  4  5  1  0
  4 17  1  0
  4 37  1  6
  5 38  1  0
 17  6  1  0
  6 38  1  1
  6 39  1  0
 18  7  1  0
  7 39  1  0
  8 19  1  0
 10  9  1  0
 14  9  1  0
  9 30  1  0
 11 10  1  0
 12 11  1  1
 12 13  1  0
 42 12  1  0
 13 14  1  0
 15 27  1  0
 31 15  1  0
 31 16  1  0
 17 18  1  1
 19 20  1  0
 19 24  1  0
 20 21  1  0
 21 22  1  0
 23 22  1  0
 24 23  1  0
 30 25  1  0
 25 41  1  0
 28 26  1  0
 27 28  1  0
 27 29  1  6
 30 40  1  6
 42 31  1  6
 42 33  2  0
 42 34  2  0
M  END
$$$$
