
     RDKit          3D

 42 45  0  0  0  0  0  0  0  0999 V2000
   71.0170   56.7993   15.2090 C   0  0  1  0  0  0  0  0  0  0  0  0
   70.7844   57.6038   16.5211 C   0  0  2  0  0  0  0  0  0  0  0  0
   72.7021   58.0592   18.0467 C   0  0  0  0  0  0  0  0  0  0  0  0
   74.2567   59.3798   19.3021 C   0  0  1  0  0  0  0  0  0  0  0  0
   75.1337   60.0136   18.2742 C   0  0  0  0  0  0  0  0  0  0  0  0
   75.6443   61.0714   20.1701 C   0  0  1  0  0  0  0  0  0  0  0  0
   74.2164   62.6465   20.8599 C   0  0  0  0  0  0  0  0  0  0  0  0
   69.8183   58.7179   16.2529 C   0  0  0  0  0  0  0  0  0  0  0  0
   72.9925   50.0050   12.6484 C   0  0  0  0  0  0  0  0  0  0  0  0
   72.8988   51.0148   11.5317 C   0  0  0  0  0  0  0  0  0  0  0  0
   71.7145   51.9135   11.8227 C   0  0  0  0  0  0  0  0  0  0  0  0
   71.8535   52.6454   13.1214 C   0  0  2  0  0  0  0  0  0  0  0  0
   72.4425   51.9175   14.2424 C   0  0  0  0  0  0  0  0  0  0  0  0
   73.2709   50.7182   13.9079 C   0  0  0  0  0  0  0  0  0  0  0  0
   69.5463   53.7405   15.8931 C   0  0  0  0  0  0  0  0  0  0  0  0
   71.2400   55.3791   15.3310 C   0  0  0  0  0  0  0  0  0  0  0  0
   74.3468   60.3293   20.4747 C   0  0  1  0  0  0  0  0  0  0  0  0
   73.3580   61.4394   20.4609 C   0  0  0  0  0  0  0  0  0  0  0  0
   69.2010   59.3615   17.4525 C   0  0  0  0  0  0  0  0  0  0  0  0
   68.8105   58.4618   18.5658 C   0  0  0  0  0  0  0  0  0  0  0  0
   69.3723   58.9316   19.9098 C   0  0  0  0  0  0  0  0  0  0  0  0
   69.1114   60.3675   20.2067 C   0  0  0  0  0  0  0  0  0  0  0  0
   69.3306   61.2551   19.0070 C   0  0  0  0  0  0  0  0  0  0  0  0
   70.1328   60.4587   17.9937 C   0  0  0  0  0  0  0  0  0  0  0  0
   73.6737   47.9548   11.3209 C   0  0  0  0  0  0  0  0  0  0  0  0
   67.7255   52.1822   17.7175 C   0  0  0  0  0  0  0  0  0  0  0  0
   68.3793   54.2930   16.5619 C   0  0  2  0  0  0  0  0  0  0  0  0
   67.7509   53.6809   17.7533 C   0  0  0  0  0  0  0  0  0  0  0  0
   67.1848   54.5706   15.6058 C   0  0  0  0  0  0  0  0  0  0  0  0
   73.9908   48.9106   12.4176 C   0  0  1  0  0  0  0  0  0  0  0  0
   70.2295   54.4140   14.9159 N   0  0  0  0  0  0  0  0  0  0  0  0
   72.1404   58.1574   16.7648 N   0  0  0  0  0  0  0  0  0  0  0  0
   70.7234   54.9707   12.3799 O   0  0  0  0  0  0  0  0  0  0  0  0
   69.2921   53.1141   12.8848 O   0  0  0  0  0  0  0  0  0  0  0  0
   69.6632   56.9578   14.6673 O   0  0  0  0  0  0  0  0  0  0  0  0
   73.0031   56.8737   18.4347 O   0  0  0  0  0  0  0  0  0  0  0  0
   72.9484   59.1184   18.8971 O   0  0  0  0  0  0  0  0  0  0  0  0
   75.6215   61.2028   18.7955 O   0  0  0  0  0  0  0  0  0  0  0  0
   75.5239   62.2526   20.8478 O   0  0  0  0  0  0  0  0  0  0  0  0
   75.2476   49.4871   12.0932 O   0  0  0  0  0  0  0  0  0  0  0  0
   74.7935   47.4970   10.6345 O   0  0  0  0  0  0  0  0  0  0  0  0
   70.6002   53.7924   13.4024 S   0  0  1  0  0  6  0  0  0  0  0  0
  1  2  1  0
 16  1  1  0
  1 35  1  6
  2  8  1  6
  2 32  1  0
 32  3  1  0
  3 36  2  0
  3 37  1  0
  4  5  1  0
  4 17  1  0
  4 37  1  6
  5 38  1  0
 17  6  1  0
  6 38  1  6
  6 39  1  0
 18  7  1  0
  7 39  1  0
  8 19  1  0
 10  9  1  0
 14  9  1  0
  9 30  1  0
 11 10  1  0
 12 11  1  6
 12 13  1  0
 42 12  1  0
 13 14  1  0
 15 27  1  0
 31 15  1  0
 31 16  1  0
 17 18  1  6
 19 20  1  0
 19 24  1  0
 20 21  1  0
 21 22  1  0
 23 22  1  0
 24 23  1  0
 30 25  1  0
 25 41  1  0
 28 26  1  0
 27 28  1  0
 27 29  1  6
 30 40  1  6
 42 31  1  1
 42 33  2  0
 42 34  2  0
M  END
$$$$
