
     RDKit          3D

 42 45  0  0  0  0  0  0  0  0999 V2000
   71.3248   57.1981   14.9791 C   0  0  1  0  0  0  0  0  0  0  0  0
   70.8483   57.8250   16.3219 C   0  0  2  0  0  0  0  0  0  0  0  0
   72.5353   59.0893   17.6515 C   0  0  0  0  0  0  0  0  0  0  0  0
   74.2128   60.1312   19.0068 C   0  0  1  0  0  0  0  0  0  0  0  0
   75.4987   60.7889   18.6309 C   0  0  0  0  0  0  0  0  0  0  0  0
   75.2347   61.2767   20.7911 C   0  0  1  0  0  0  0  0  0  0  0  0
   73.7936   62.9123   21.2848 C   0  0  0  0  0  0  0  0  0  0  0  0
   69.4528   58.3463   16.1559 C   0  0  0  0  0  0  0  0  0  0  0  0
   67.4208   50.7585   13.3265 C   0  0  0  0  0  0  0  0  0  0  0  0
   68.6505   50.4929   14.1589 C   0  0  0  0  0  0  0  0  0  0  0  0
   69.3210   51.8249   14.4262 C   0  0  0  0  0  0  0  0  0  0  0  0
   68.4347   52.7760   15.1688 C   0  0  2  0  0  0  0  0  0  0  0  0
   67.0182   52.7907   14.8128 C   0  0  0  0  0  0  0  0  0  0  0  0
   66.4851   51.5801   14.1150 C   0  0  0  0  0  0  0  0  0  0  0  0
   71.6187   53.9317   14.4070 C   0  0  0  0  0  0  0  0  0  0  0  0
   70.5495   56.1054   14.4437 C   0  0  0  0  0  0  0  0  0  0  0  0
   73.8728   60.7598   20.3387 C   0  0  1  0  0  0  0  0  0  0  0  0
   73.0880   62.0198   20.2560 C   0  0  0  0  0  0  0  0  0  0  0  0
   68.7472   58.7580   17.4078 C   0  0  0  0  0  0  0  0  0  0  0  0
   68.8258   57.8224   18.5567 C   0  0  0  0  0  0  0  0  0  0  0  0
   69.2854   58.5218   19.8382 C   0  0  0  0  0  0  0  0  0  0  0  0
   68.5290   59.7651   20.1543 C   0  0  0  0  0  0  0  0  0  0  0  0
   68.2894   60.6217   18.9361 C   0  0  0  0  0  0  0  0  0  0  0  0
   69.2397   60.1454   17.8523 C   0  0  0  0  0  0  0  0  0  0  0  0
   65.7027   49.7450   11.7610 C   0  0  0  0  0  0  0  0  0  0  0  0
   75.4402   53.3732   14.6395 C   0  0  0  0  0  0  0  0  0  0  0  0
   73.0395   54.0454   14.6946 C   0  0  2  0  0  0  0  0  0  0  0  0
   74.0786   53.2294   14.0286 C   0  0  0  0  0  0  0  0  0  0  0  0
   73.3815   53.9303   16.2072 C   0  0  0  0  0  0  0  0  0  0  0  0
   66.7452   49.5274   12.8016 C   0  0  1  0  0  0  0  0  0  0  0  0
   70.6794   54.7529   14.9716 N   0  0  0  0  0  0  0  0  0  0  0  0
   71.7979   58.9573   16.4652 N   0  0  0  0  0  0  0  0  0  0  0  0
   68.2001   55.4210   15.5969 O   0  0  0  0  0  0  0  0  0  0  0  0
   69.4623   54.1171   17.1643 O   0  0  0  0  0  0  0  0  0  0  0  0
   71.0350   58.3609   14.1335 O   0  0  0  0  0  0  0  0  0  0  0  0
   72.5908   58.0437   18.3933 O   0  0  0  0  0  0  0  0  0  0  0  0
   73.1888   60.2324   18.0661 O   0  0  0  0  0  0  0  0  0  0  0  0
   75.8172   61.7113   19.6167 O   0  0  0  0  0  0  0  0  0  0  0  0
   74.9389   62.2782   21.6735 O   0  0  0  0  0  0  0  0  0  0  0  0
   67.7191   48.6742   12.2181 O   0  0  0  0  0  0  0  0  0  0  0  0
   64.5452   49.0005   11.9622 O   0  0  0  0  0  0  0  0  0  0  0  0
   69.2232   54.2372   15.6256 S   0  0  1  0  0  6  0  0  0  0  0  0
  1  2  1  0
 16  1  1  0
  1 35  1  6
  2  8  1  6
  2 32  1  0
 32  3  1  0
  3 36  2  0
  3 37  1  0
  4  5  1  0
  4 17  1  0
  4 37  1  6
  5 38  1  0
 17  6  1  0
  6 38  1  6
  6 39  1  0
 18  7  1  0
  7 39  1  0
  8 19  1  0
 10  9  1  0
 14  9  1  0
  9 30  1  0
 11 10  1  0
 12 11  1  6
 12 13  1  0
 42 12  1  0
 13 14  1  0
 15 27  1  0
 31 15  1  0
 31 16  1  0
 17 18  1  6
 19 20  1  0
 19 24  1  0
 20 21  1  0
 21 22  1  0
 23 22  1  0
 24 23  1  0
 30 25  1  0
 25 41  1  0
 28 26  1  0
 27 28  1  0
 27 29  1  1
 30 40  1  6
 42 31  1  6
 42 33  2  0
 42 34  2  0
M  END
$$$$
