
     RDKit          3D

 42 45  0  0  0  0  0  0  0  0999 V2000
   71.5077   57.5226   14.6328 C   0  0  1  0  0  0  0  0  0  0  0  0
   71.2302   57.7479   16.1478 C   0  0  2  0  0  0  0  0  0  0  0  0
   73.2236   58.5246   17.4268 C   0  0  0  0  0  0  0  0  0  0  0  0
   75.0710   59.5405   18.5632 C   0  0  1  0  0  0  0  0  0  0  0  0
   76.3323   60.3164   18.3780 C   0  0  0  0  0  0  0  0  0  0  0  0
   75.1662   61.4973   19.8678 C   0  0  1  0  0  0  0  0  0  0  0  0
   73.5063   62.7644   19.0709 C   0  0  0  0  0  0  0  0  0  0  0  0
   69.8452   58.2942   16.3205 C   0  0  0  0  0  0  0  0  0  0  0  0
   73.3982   50.4277   14.6262 C   0  0  0  0  0  0  0  0  0  0  0  0
   71.9635   50.3815   15.0900 C   0  0  0  0  0  0  0  0  0  0  0  0
   71.6497   51.7099   15.7471 C   0  0  0  0  0  0  0  0  0  0  0  0
   71.8149   52.8673   14.8119 C   0  0  2  0  0  0  0  0  0  0  0  0
   72.9383   52.8219   13.8796 C   0  0  0  0  0  0  0  0  0  0  0  0
   73.5289   51.4768   13.5992 C   0  0  0  0  0  0  0  0  0  0  0  0
   68.9368   55.6488   15.2838 C   0  0  0  0  0  0  0  0  0  0  0  0
   70.8356   56.4189   13.9910 C   0  0  0  0  0  0  0  0  0  0  0  0
   74.1610   60.5141   19.2765 C   0  0  1  0  0  0  0  0  0  0  0  0
   73.3669   61.3996   18.3846 C   0  0  0  0  0  0  0  0  0  0  0  0
   69.6232   59.1702   17.5112 C   0  0  0  0  0  0  0  0  0  0  0  0
   69.3174   60.5970   17.2424 C   0  0  0  0  0  0  0  0  0  0  0  0
   68.0610   61.0653   17.9805 C   0  0  0  0  0  0  0  0  0  0  0  0
   68.0529   60.7348   19.4326 C   0  0  0  0  0  0  0  0  0  0  0  0
   68.5485   59.3375   19.7103 C   0  0  0  0  0  0  0  0  0  0  0  0
   68.5164   58.5753   18.3978 C   0  0  0  0  0  0  0  0  0  0  0  0
   74.1363   48.0610   15.1584 C   0  0  0  0  0  0  0  0  0  0  0  0
   68.1473   53.6277   12.8085 C   0  0  0  0  0  0  0  0  0  0  0  0
   67.7493   54.8926   14.9203 C   0  0  2  0  0  0  0  0  0  0  0  0
   67.3236   54.6566   13.5231 C   0  0  0  0  0  0  0  0  0  0  0  0
   66.4557   55.3816   15.6314 C   0  0  0  0  0  0  0  0  0  0  0  0
   73.9358   49.1191   14.1302 C   0  0  1  0  0  0  0  0  0  0  0  0
   70.1761   55.3769   14.7683 N   0  0  0  0  0  0  0  0  0  0  0  0
   72.2315   58.7952   16.4723 N   0  0  0  0  0  0  0  0  0  0  0  0
   70.9520   54.1817   16.9941 O   0  0  0  0  0  0  0  0  0  0  0  0
   72.6156   55.2228   15.6162 O   0  0  0  0  0  0  0  0  0  0  0  0
   70.8468   58.7411   14.1535 O   0  0  0  0  0  0  0  0  0  0  0  0
   72.8727   57.7582   18.3944 O   0  0  0  0  0  0  0  0  0  0  0  0
   74.5156   59.0099   17.3997 O   0  0  0  0  0  0  0  0  0  0  0  0
   76.1350   61.5911   18.8880 O   0  0  0  0  0  0  0  0  0  0  0  0
   74.4458   62.6441   20.0546 O   0  0  0  0  0  0  0  0  0  0  0  0
   73.0372   48.5792   13.1722 O   0  0  0  0  0  0  0  0  0  0  0  0
   73.5907   46.8298   14.8100 O   0  0  0  0  0  0  0  0  0  0  0  0
   71.3130   54.3715   15.4832 S   0  0  1  0  0  6  0  0  0  0  0  0
  1  2  1  0
 16  1  1  0
  1 35  1  6
  2  8  1  6
  2 32  1  0
 32  3  1  0
  3 36  2  0
  3 37  1  0
  4  5  1  0
  4 17  1  0
  4 37  1  6
  5 38  1  0
 17  6  1  0
  6 38  1  6
  6 39  1  0
 18  7  1  0
  7 39  1  0
  8 19  1  0
 10  9  1  0
 14  9  1  0
  9 30  1  0
 11 10  1  0
 12 11  1  1
 12 13  1  0
 42 12  1  0
 13 14  1  0
 15 27  1  0
 31 15  1  0
 31 16  1  0
 17 18  1  6
 19 20  1  0
 19 24  1  0
 20 21  1  0
 21 22  1  0
 23 22  1  0
 24 23  1  0
 30 25  1  0
 25 41  1  0
 28 26  1  0
 27 28  1  0
 27 29  1  1
 30 40  1  6
 42 31  1  6
 42 33  2  0
 42 34  2  0
M  END
$$$$
