
     RDKit          3D

 42 45  0  0  0  0  0  0  0  0999 V2000
   70.8643   57.5561   14.6725 C   0  0  1  0  0  0  0  0  0  0  0  0
   70.8764   57.8896   16.1930 C   0  0  2  0  0  0  0  0  0  0  0  0
   72.7439   58.6826   17.6407 C   0  0  0  0  0  0  0  0  0  0  0  0
   74.2502   60.1102   18.8365 C   0  0  1  0  0  0  0  0  0  0  0  0
   75.1602   61.2846   18.6962 C   0  0  0  0  0  0  0  0  0  0  0  0
   74.5372   61.3161   20.8374 C   0  0  1  0  0  0  0  0  0  0  0  0
   72.5021   62.1264   21.2816 C   0  0  0  0  0  0  0  0  0  0  0  0
   70.1167   59.1604   16.4260 C   0  0  0  0  0  0  0  0  0  0  0  0
   67.1867   51.2030   13.2012 C   0  0  0  0  0  0  0  0  0  0  0  0
   68.0058   50.7533   14.3854 C   0  0  0  0  0  0  0  0  0  0  0  0
   68.9578   51.8774   14.7392 C   0  0  0  0  0  0  0  0  0  0  0  0
   68.2442   53.1426   15.1018 C   0  0  2  0  0  0  0  0  0  0  0  0
   67.0501   53.4837   14.3328 C   0  0  0  0  0  0  0  0  0  0  0  0
   66.3757   52.3665   13.6024 C   0  0  0  0  0  0  0  0  0  0  0  0
   71.4215   54.3289   13.9926 C   0  0  0  0  0  0  0  0  0  0  0  0
   70.1493   56.3737   14.2572 C   0  0  0  0  0  0  0  0  0  0  0  0
   73.5668   60.3517   20.1629 C   0  0  1  0  0  0  0  0  0  0  0  0
   72.3303   61.1741   20.0914 C   0  0  0  0  0  0  0  0  0  0  0  0
   69.5801   59.3668   17.8058 C   0  0  0  0  0  0  0  0  0  0  0  0
   69.9450   58.3499   18.8228 C   0  0  0  0  0  0  0  0  0  0  0  0
   70.5243   58.9847   20.0894 C   0  0  0  0  0  0  0  0  0  0  0  0
   69.6957   60.0897   20.6466 C   0  0  0  0  0  0  0  0  0  0  0  0
   69.1705   61.0144   19.5768 C   0  0  0  0  0  0  0  0  0  0  0  0
   69.9812   60.7600   18.3188 C   0  0  0  0  0  0  0  0  0  0  0  0
   67.0503   48.9643   12.0181 C   0  0  0  0  0  0  0  0  0  0  0  0
   75.2010   53.4875   14.1036 C   0  0  0  0  0  0  0  0  0  0  0  0
   72.8249   54.2026   14.3512 C   0  0  2  0  0  0  0  0  0  0  0  0
   73.7989   53.3989   13.5800 C   0  0  0  0  0  0  0  0  0  0  0  0
   73.0559   53.7631   15.8248 C   0  0  0  0  0  0  0  0  0  0  0  0
   66.3297   50.1335   12.5934 C   0  0  1  0  0  0  0  0  0  0  0  0
   70.5274   55.0505   14.7379 N   0  0  0  0  0  0  0  0  0  0  0  0
   72.3250   58.1156   16.4276 N   0  0  0  0  0  0  0  0  0  0  0  0
   68.4500   55.5442   16.2952 O   0  0  0  0  0  0  0  0  0  0  0  0
   69.9771   53.8120   16.9417 O   0  0  0  0  0  0  0  0  0  0  0  0
   70.0477   58.6994   14.2517 O   0  0  0  0  0  0  0  0  0  0  0  0
   72.5225   57.9796   18.6912 O   0  0  0  0  0  0  0  0  0  0  0  0
   73.3615   59.9092   17.7812 O   0  0  0  0  0  0  0  0  0  0  0  0
   74.9739   62.1101   19.7952 O   0  0  0  0  0  0  0  0  0  0  0  0
   73.7720   61.9738   21.7599 O   0  0  0  0  0  0  0  0  0  0  0  0
   65.4572   49.6149   13.5867 O   0  0  0  0  0  0  0  0  0  0  0  0
   66.2211   48.0646   11.3565 O   0  0  0  0  0  0  0  0  0  0  0  0
   69.2933   54.3883   15.6613 S   0  0  1  0  0  6  0  0  0  0  0  0
  1  2  1  0
 16  1  1  0
  1 35  1  6
  2  8  1  6
  2 32  1  0
 32  3  1  0
  3 36  2  0
  3 37  1  0
  4  5  1  0
  4 17  1  0
  4 37  1  6
  5 38  1  0
 17  6  1  0
  6 38  1  6
  6 39  1  0
 18  7  1  0
  7 39  1  0
  8 19  1  0
 10  9  1  0
 14  9  1  0
  9 30  1  0
 11 10  1  0
 12 11  1  6
 12 13  1  0
 42 12  1  0
 13 14  1  0
 15 27  1  0
 31 15  1  0
 31 16  1  0
 17 18  1  6
 19 20  1  0
 19 24  1  0
 20 21  1  0
 21 22  1  0
 23 22  1  0
 24 23  1  0
 30 25  1  0
 25 41  1  0
 28 26  1  0
 27 28  1  0
 27 29  1  1
 30 40  1  1
 42 31  1  6
 42 33  2  0
 42 34  2  0
M  END
$$$$
