
     RDKit          3D

 42 45  0  0  0  0  0  0  0  0999 V2000
   70.9732   58.0375   14.9643 C   0  0  1  0  0  0  0  0  0  0  0  0
   70.8602   56.5240   15.3100 C   0  0  2  0  0  0  0  0  0  0  0  0
   68.8729   55.0216   15.3879 C   0  0  0  0  0  0  0  0  0  0  0  0
   67.2907   53.2410   15.1373 C   0  0  1  0  0  0  0  0  0  0  0  0
   66.1065   52.7711   14.3601 C   0  0  0  0  0  0  0  0  0  0  0  0
   67.5623   51.0868   14.2285 C   0  0  1  0  0  0  0  0  0  0  0  0
   69.2404   51.3185   12.7703 C   0  0  0  0  0  0  0  0  0  0  0  0
   71.5910   55.7246   14.2739 C   0  0  0  0  0  0  0  0  0  0  0  0
   69.2682   61.0262   21.2973 C   0  0  0  0  0  0  0  0  0  0  0  0
   70.7716   60.9623   21.1905 C   0  0  0  0  0  0  0  0  0  0  0  0
   71.1245   59.7118   20.4117 C   0  0  0  0  0  0  0  0  0  0  0  0
   70.5447   59.7113   19.0313 C   0  0  2  0  0  0  0  0  0  0  0  0
   69.1978   60.2526   18.8688 C   0  0  0  0  0  0  0  0  0  0  0  0
   68.7043   61.1686   19.9430 C   0  0  0  0  0  0  0  0  0  0  0  0
   73.5026   57.6659   17.1526 C   0  0  0  0  0  0  0  0  0  0  0  0
   71.9500   58.8136   15.6890 C   0  0  0  0  0  0  0  0  0  0  0  0
   68.3785   52.2686   14.7425 C   0  0  1  0  0  0  0  0  0  0  0  0
   69.1499   52.6483   13.5295 C   0  0  0  0  0  0  0  0  0  0  0  0
   72.3145   54.5115   14.7631 C   0  0  0  0  0  0  0  0  0  0  0  0
   71.6788   53.7569   15.8712 C   0  0  0  0  0  0  0  0  0  0  0  0
   71.5567   52.2642   15.5553 C   0  0  0  0  0  0  0  0  0  0  0  0
   72.8228   51.6399   15.0810 C   0  0  0  0  0  0  0  0  0  0  0  0
   73.5598   52.5074   14.0912 C   0  0  0  0  0  0  0  0  0  0  0  0
   72.5821   53.5547   13.5893 C   0  0  0  0  0  0  0  0  0  0  0  0
   67.7487   61.6689   23.2228 C   0  0  0  0  0  0  0  0  0  0  0  0
   75.7087   56.8949   19.1756 C   0  0  0  0  0  0  0  0  0  0  0  0
   74.8364   58.2346   17.2618 C   0  0  2  0  0  0  0  0  0  0  0  0
   75.9912   57.5113   17.8384 C   0  0  0  0  0  0  0  0  0  0  0  0
   74.8687   59.6201   17.9671 C   0  0  0  0  0  0  0  0  0  0  0  0
   68.7527   62.0977   22.2103 C   0  0  1  0  0  0  0  0  0  0  0  0
   72.3760   58.4350   17.0306 N   0  0  0  0  0  0  0  0  0  0  0  0
   69.3974   56.3060   15.1786 N   0  0  0  0  0  0  0  0  0  0  0  0
   71.1600   57.0941   18.9563 O   0  0  0  0  0  0  0  0  0  0  0  0
   69.8290   58.0065   17.1825 O   0  0  0  0  0  0  0  0  0  0  0  0
   71.5078   57.8654   13.6094 O   0  0  0  0  0  0  0  0  0  0  0  0
   69.6208   54.2141   16.0477 O   0  0  0  0  0  0  0  0  0  0  0  0
   67.6426   54.5767   14.9474 O   0  0  0  0  0  0  0  0  0  0  0  0
   66.4986   51.6891   13.5859 O   0  0  0  0  0  0  0  0  0  0  0  0
   68.4184   50.4239   13.3937 O   0  0  0  0  0  0  0  0  0  0  0  0
   69.8392   62.6535   22.9366 O   0  0  0  0  0  0  0  0  0  0  0  0
   67.0886   62.7259   23.8408 O   0  0  0  0  0  0  0  0  0  0  0  0
   71.0596   58.3793   18.0691 S   0  0  1  0  0  6  0  0  0  0  0  0
  1  2  1  0
 16  1  1  0
  1 35  1  6
  2  8  1  6
  2 32  1  0
 32  3  1  0
  3 36  2  0
  3 37  1  0
  4  5  1  0
  4 17  1  0
  4 37  1  6
  5 38  1  0
 17  6  1  0
  6 38  1  6
  6 39  1  0
 18  7  1  0
  7 39  1  0
  8 19  1  0
 10  9  1  0
 14  9  1  0
  9 30  1  0
 11 10  1  0
 12 11  1  1
 12 13  1  0
 42 12  1  0
 13 14  1  0
 15 27  1  0
 31 15  1  0
 31 16  1  0
 17 18  1  6
 19 20  1  0
 19 24  1  0
 20 21  1  0
 21 22  1  0
 23 22  1  0
 24 23  1  0
 30 25  1  0
 25 41  1  0
 28 26  1  0
 27 28  1  0
 27 29  1  1
 30 40  1  1
 42 31  1  6
 42 33  2  0
 42 34  2  0
M  END
$$$$
