
     RDKit          3D

 42 45  0  0  0  0  0  0  0  0999 V2000
   71.8410   56.1696   17.1820 C   0  0  1  0  0  0  0  0  0  0  0  0
   71.3098   57.4677   17.8569 C   0  0  2  0  0  0  0  0  0  0  0  0
   73.3550   58.5417   18.7930 C   0  0  0  0  0  0  0  0  0  0  0  0
   75.2046   59.9000   19.4788 C   0  0  1  0  0  0  0  0  0  0  0  0
   75.9727   60.9439   18.7388 C   0  0  0  0  0  0  0  0  0  0  0  0
   74.7501   62.0907   20.2099 C   0  0  1  0  0  0  0  0  0  0  0  0
   72.5943   62.3968   19.7056 C   0  0  0  0  0  0  0  0  0  0  0  0
   70.1530   57.9984   17.0651 C   0  0  0  0  0  0  0  0  0  0  0  0
   67.3347   50.7786   13.4774 C   0  0  0  0  0  0  0  0  0  0  0  0
   67.7956   51.8872   12.5641 C   0  0  0  0  0  0  0  0  0  0  0  0
   68.1889   53.0646   13.4326 C   0  0  0  0  0  0  0  0  0  0  0  0
   69.2975   52.7332   14.3829 C   0  0  2  0  0  0  0  0  0  0  0  0
   69.2767   51.4112   15.0036 C   0  0  0  0  0  0  0  0  0  0  0  0
   68.4699   50.3557   14.3170 C   0  0  0  0  0  0  0  0  0  0  0  0
   72.3627   54.3035   14.2345 C   0  0  0  0  0  0  0  0  0  0  0  0
   71.5503   55.9820   15.7812 C   0  0  0  0  0  0  0  0  0  0  0  0
   74.1392   60.6930   20.2004 C   0  0  1  0  0  0  0  0  0  0  0  0
   72.8911   60.9183   19.4247 C   0  0  0  0  0  0  0  0  0  0  0  0
   69.0784   58.6863   17.8439 C   0  0  0  0  0  0  0  0  0  0  0  0
   68.6671   58.0499   19.1195 C   0  0  0  0  0  0  0  0  0  0  0  0
   68.6876   59.0378   20.2885 C   0  0  0  0  0  0  0  0  0  0  0  0
   67.9655   60.3118   20.0175 C   0  0  0  0  0  0  0  0  0  0  0  0
   68.2460   60.8532   18.6378 C   0  0  0  0  0  0  0  0  0  0  0  0
   69.4829   60.1450   18.1151 C   0  0  0  0  0  0  0  0  0  0  0  0
   65.4008   49.1489   13.2927 C   0  0  0  0  0  0  0  0  0  0  0  0
   74.1911   53.5269   12.1292 C   0  0  0  0  0  0  0  0  0  0  0  0
   73.7773   54.1193   14.5158 C   0  0  2  0  0  0  0  0  0  0  0  0
   74.7600   53.6592   13.5100 C   0  0  0  0  0  0  0  0  0  0  0  0
   74.0558   53.2206   15.7539 C   0  0  0  0  0  0  0  0  0  0  0  0
   66.7195   49.6063   12.7740 C   0  0  1  0  0  0  0  0  0  0  0  0
   71.4535   54.6494   15.1984 N   0  0  0  0  0  0  0  0  0  0  0  0
   72.4801   58.3696   17.7097 N   0  0  0  0  0  0  0  0  0  0  0  0
   68.8945   55.2992   15.0810 O   0  0  0  0  0  0  0  0  0  0  0  0
   69.6047   53.7530   16.7707 O   0  0  0  0  0  0  0  0  0  0  0  0
   73.2669   56.5033   17.2647 O   0  0  0  0  0  0  0  0  0  0  0  0
   72.8403   58.3792   19.9572 O   0  0  0  0  0  0  0  0  0  0  0  0
   74.6941   58.8635   18.6985 O   0  0  0  0  0  0  0  0  0  0  0  0
   75.3776   62.1730   18.9824 O   0  0  0  0  0  0  0  0  0  0  0  0
   73.6770   62.9264   20.3475 O   0  0  0  0  0  0  0  0  0  0  0  0
   66.5177   49.9362   11.4074 O   0  0  0  0  0  0  0  0  0  0  0  0
   65.2868   47.7663   13.3937 O   0  0  0  0  0  0  0  0  0  0  0  0
   69.8727   54.0924   15.2700 S   0  0  1  0  0  6  0  0  0  0  0  0
  1  2  1  0
 16  1  1  0
  1 35  1  6
  2  8  1  6
  2 32  1  0
 32  3  1  0
  3 36  2  0
  3 37  1  0
  4  5  1  0
  4 17  1  0
  4 37  1  6
  5 38  1  0
 17  6  1  0
  6 38  1  6
  6 39  1  0
 18  7  1  0
  7 39  1  0
  8 19  1  0
 10  9  1  0
 14  9  1  0
  9 30  1  0
 11 10  1  0
 12 11  1  1
 12 13  1  0
 42 12  1  0
 13 14  1  0
 15 27  1  0
 31 15  1  0
 31 16  1  0
 17 18  1  6
 19 20  1  0
 19 24  1  0
 20 21  1  0
 21 22  1  0
 23 22  1  0
 24 23  1  0
 30 25  1  0
 25 41  1  0
 28 26  1  0
 27 28  1  0
 27 29  1  1
 30 40  1  6
 42 31  1  1
 42 33  2  0
 42 34  2  0
M  END
$$$$
