
     RDKit          3D

 42 45  0  0  0  0  0  0  0  0999 V2000
   71.6012   57.6277   16.0555 C   0  0  1  0  0  0  0  0  0  0  0  0
   70.0488   57.6223   16.1698 C   0  0  2  0  0  0  0  0  0  0  0  0
   69.2124   55.3340   15.6441 C   0  0  0  0  0  0  0  0  0  0  0  0
   67.5318   53.6917   15.1806 C   0  0  1  0  0  0  0  0  0  0  0  0
   66.8038   53.6262   13.8795 C   0  0  0  0  0  0  0  0  0  0  0  0
   68.2412   51.9230   13.7990 C   0  0  1  0  0  0  0  0  0  0  0  0
   70.3675   52.4220   13.3242 C   0  0  0  0  0  0  0  0  0  0  0  0
   69.6313   58.5493   17.2712 C   0  0  0  0  0  0  0  0  0  0  0  0
   76.2679   52.4110   14.5251 C   0  0  0  0  0  0  0  0  0  0  0  0
   75.9056   51.8738   15.8874 C   0  0  0  0  0  0  0  0  0  0  0  0
   75.2533   52.9977   16.6661 C   0  0  0  0  0  0  0  0  0  0  0  0
   74.0107   53.5091   16.0057 C   0  0  2  0  0  0  0  0  0  0  0  0
   74.0182   53.6105   14.5486 C   0  0  0  0  0  0  0  0  0  0  0  0
   75.0287   52.7836   13.8196 C   0  0  0  0  0  0  0  0  0  0  0  0
   74.6014   56.8749   16.3073 C   0  0  0  0  0  0  0  0  0  0  0  0
   72.3518   57.1123   17.1747 C   0  0  0  0  0  0  0  0  0  0  0  0
   68.7200   52.7828   14.9645 C   0  0  1  0  0  0  0  0  0  0  0  0
   69.9160   53.4423   14.3769 C   0  0  0  0  0  0  0  0  0  0  0  0
   68.2612   58.3376   17.8302 C   0  0  0  0  0  0  0  0  0  0  0  0
   68.0514   58.7249   19.2471 C   0  0  0  0  0  0  0  0  0  0  0  0
   66.8363   59.6394   19.4199 C   0  0  0  0  0  0  0  0  0  0  0  0
   65.5974   59.1300   18.7691 C   0  0  0  0  0  0  0  0  0  0  0  0
   65.8571   58.5622   17.3960 C   0  0  0  0  0  0  0  0  0  0  0  0
   67.2226   59.0551   16.9519 C   0  0  0  0  0  0  0  0  0  0  0  0
   76.9801   50.0348   13.9993 C   0  0  0  0  0  0  0  0  0  0  0  0
   76.5003   58.9931   18.7010 C   0  0  0  0  0  0  0  0  0  0  0  0
   75.2384   58.1080   16.7408 C   0  0  2  0  0  0  0  0  0  0  0  0
   76.5314   58.1544   17.4587 C   0  0  0  0  0  0  0  0  0  0  0  0
   74.3083   59.0302   17.5789 C   0  0  0  0  0  0  0  0  0  0  0  0
   77.1042   51.4865   13.6924 C   0  0  1  0  0  0  0  0  0  0  0  0
   73.5509   56.3072   16.9777 N   0  0  0  0  0  0  0  0  0  0  0  0
   69.7934   56.2151   16.5686 N   0  0  0  0  0  0  0  0  0  0  0  0
   71.6218   54.5197   16.7168 O   0  0  0  0  0  0  0  0  0  0  0  0
   73.2723   54.1792   18.4227 O   0  0  0  0  0  0  0  0  0  0  0  0
   71.6995   56.6193   14.9951 O   0  0  0  0  0  0  0  0  0  0  0  0
   70.0092   54.8382   14.7689 O   0  0  0  0  0  0  0  0  0  0  0  0
   67.8809   54.9713   15.6101 O   0  0  0  0  0  0  0  0  0  0  0  0
   67.5257   52.8111   13.0202 O   0  0  0  0  0  0  0  0  0  0  0  0
   69.3933   51.4710   13.2182 O   0  0  0  0  0  0  0  0  0  0  0  0
   76.7461   51.6374   12.3264 O   0  0  0  0  0  0  0  0  0  0  0  0
   77.6980   49.2153   13.1345 O   0  0  0  0  0  0  0  0  0  0  0  0
   73.1620   54.6756   16.9460 S   0  0  1  0  0  6  0  0  0  0  0  0
  1  2  1  0
 16  1  1  0
  1 35  1  6
  2  8  1  1
  2 32  1  0
 32  3  1  0
  3 36  2  0
  3 37  1  0
  4  5  1  0
  4 17  1  0
  4 37  1  6
  5 38  1  0
 17  6  1  0
  6 38  1  6
  6 39  1  0
 18  7  1  0
  7 39  1  0
  8 19  1  0
 10  9  1  0
 14  9  1  0
  9 30  1  0
 11 10  1  0
 12 11  1  1
 12 13  1  0
 42 12  1  0
 13 14  1  0
 15 27  1  0
 31 15  1  0
 31 16  1  0
 17 18  1  6
 19 20  1  0
 19 24  1  0
 20 21  1  0
 21 22  1  0
 23 22  1  0
 24 23  1  0
 30 25  1  0
 25 41  1  0
 28 26  1  0
 27 28  1  0
 27 29  1  1
 30 40  1  6
 42 31  1  1
 42 33  2  0
 42 34  2  0
M  END
$$$$
