
     RDKit          3D

 42 45  0  0  0  0  0  0  0  0999 V2000
   71.0400   57.5501   14.6926 C   0  0  1  0  0  0  0  0  0  0  0  0
   71.0184   57.8454   16.2208 C   0  0  2  0  0  0  0  0  0  0  0  0
   72.8583   58.5646   17.7407 C   0  0  0  0  0  0  0  0  0  0  0  0
   74.3477   59.6363   19.2801 C   0  0  1  0  0  0  0  0  0  0  0  0
   75.4992   60.5741   19.4276 C   0  0  0  0  0  0  0  0  0  0  0  0
   74.0577   61.2104   21.0059 C   0  0  1  0  0  0  0  0  0  0  0  0
   72.3103   62.4341   20.3389 C   0  0  0  0  0  0  0  0  0  0  0  0
   70.2627   59.1161   16.4678 C   0  0  0  0  0  0  0  0  0  0  0  0
   66.8676   51.2642   13.7352 C   0  0  0  0  0  0  0  0  0  0  0  0
   66.8279   52.5782   12.9954 C   0  0  0  0  0  0  0  0  0  0  0  0
   67.3717   53.6449   13.9237 C   0  0  0  0  0  0  0  0  0  0  0  0
   68.7822   53.3745   14.3466 C   0  0  2  0  0  0  0  0  0  0  0  0
   69.1457   51.9871   14.6232 C   0  0  0  0  0  0  0  0  0  0  0  0
   68.2729   50.9290   14.0274 C   0  0  0  0  0  0  0  0  0  0  0  0
   72.1459   54.2074   15.3823 C   0  0  0  0  0  0  0  0  0  0  0  0
   71.2929   56.1902   14.2821 C   0  0  0  0  0  0  0  0  0  0  0  0
   73.2535   60.2932   20.0900 C   0  0  1  0  0  0  0  0  0  0  0  0
   72.4216   61.2730   19.3427 C   0  0  0  0  0  0  0  0  0  0  0  0
   69.1480   59.0405   17.4608 C   0  0  0  0  0  0  0  0  0  0  0  0
   69.3330   58.1109   18.6023 C   0  0  0  0  0  0  0  0  0  0  0  0
   69.0790   58.7943   19.9481 C   0  0  0  0  0  0  0  0  0  0  0  0
   67.7937   59.5437   20.0138 C   0  0  0  0  0  0  0  0  0  0  0  0
   67.5244   60.3405   18.7617 C   0  0  0  0  0  0  0  0  0  0  0  0
   68.8335   60.4458   18.0003 C   0  0  0  0  0  0  0  0  0  0  0  0
   64.9255   50.4769   12.3076 C   0  0  0  0  0  0  0  0  0  0  0  0
   74.1511   52.0877   15.4268 C   0  0  0  0  0  0  0  0  0  0  0  0
   73.4251   54.3627   14.7087 C   0  0  2  0  0  0  0  0  0  0  0  0
   74.3930   53.2591   14.5229 C   0  0  0  0  0  0  0  0  0  0  0  0
   74.2870   55.5304   15.2669 C   0  0  0  0  0  0  0  0  0  0  0  0
   66.1791   50.1324   13.0335 C   0  0  1  0  0  0  0  0  0  0  0  0
   71.1007   55.0730   15.1983 N   0  0  0  0  0  0  0  0  0  0  0  0
   72.4627   58.0539   16.4953 N   0  0  0  0  0  0  0  0  0  0  0  0
   68.6045   55.9391   15.1376 O   0  0  0  0  0  0  0  0  0  0  0  0
   69.1994   54.2801   16.7637 O   0  0  0  0  0  0  0  0  0  0  0  0
   69.6144   57.7945   14.4496 O   0  0  0  0  0  0  0  0  0  0  0  0
   72.1032   58.2620   18.7332 O   0  0  0  0  0  0  0  0  0  0  0  0
   73.9722   59.3473   17.9688 O   0  0  0  0  0  0  0  0  0  0  0  0
   75.0831   61.6530   20.1937 O   0  0  0  0  0  0  0  0  0  0  0  0
   73.1708   62.1851   21.3696 O   0  0  0  0  0  0  0  0  0  0  0  0
   67.0601   49.5783   12.0672 O   0  0  0  0  0  0  0  0  0  0  0  0
   63.9069   50.9382   13.1349 O   0  0  0  0  0  0  0  0  0  0  0  0
   69.4793   54.6485   15.2720 S   0  0  1  0  0  6  0  0  0  0  0  0
  1  2  1  0
 16  1  1  0
  1 35  1  1
  2  8  1  6
  2 32  1  0
 32  3  1  0
  3 36  2  0
  3 37  1  0
  4  5  1  0
  4 17  1  0
  4 37  1  6
  5 38  1  0
 17  6  1  0
  6 38  1  6
  6 39  1  0
 18  7  1  0
  7 39  1  0
  8 19  1  0
 10  9  1  0
 14  9  1  0
  9 30  1  0
 11 10  1  0
 12 11  1  1
 12 13  1  0
 42 12  1  0
 13 14  1  0
 15 27  1  0
 31 15  1  0
 31 16  1  0
 17 18  1  6
 19 20  1  0
 19 24  1  0
 20 21  1  0
 21 22  1  0
 23 22  1  0
 24 23  1  0
 30 25  1  0
 25 41  1  0
 28 26  1  0
 27 28  1  0
 27 29  1  1
 30 40  1  6
 42 31  1  1
 42 33  2  0
 42 34  2  0
M  END
$$$$
