
     RDKit          3D

 42 45  0  0  0  0  0  0  0  0999 V2000
   71.2135   56.9198   15.6682 C   0  0  1  0  0  0  0  0  0  0  0  0
   70.9700   57.7693   16.9496 C   0  0  2  0  0  0  0  0  0  0  0  0
   73.0179   58.8731   17.8441 C   0  0  0  0  0  0  0  0  0  0  0  0
   74.8434   59.9813   18.9284 C   0  0  1  0  0  0  0  0  0  0  0  0
   75.8160   61.1027   18.7745 C   0  0  0  0  0  0  0  0  0  0  0  0
   74.7362   61.5592   20.6717 C   0  0  1  0  0  0  0  0  0  0  0  0
   72.6935   62.4457   20.4790 C   0  0  0  0  0  0  0  0  0  0  0  0
   69.6306   58.4353   16.8536 C   0  0  0  0  0  0  0  0  0  0  0  0
   66.4464   55.5374   17.6440 C   0  0  0  0  0  0  0  0  0  0  0  0
   67.4266   56.5817   17.1705 C   0  0  0  0  0  0  0  0  0  0  0  0
   68.8214   56.0744   17.4746 C   0  0  0  0  0  0  0  0  0  0  0  0
   69.1263   54.7815   16.7840 C   0  0  2  0  0  0  0  0  0  0  0  0
   68.0512   53.7963   16.6986 C   0  0  0  0  0  0  0  0  0  0  0  0
   66.6546   54.3053   16.8624 C   0  0  0  0  0  0  0  0  0  0  0  0
   72.1739   53.7112   14.7461 C   0  0  0  0  0  0  0  0  0  0  0  0
   72.2615   55.9292   15.7168 C   0  0  0  0  0  0  0  0  0  0  0  0
   73.8952   60.4823   19.9937 C   0  0  1  0  0  0  0  0  0  0  0  0
   72.7453   61.2768   19.4870 C   0  0  0  0  0  0  0  0  0  0  0  0
   69.3306   59.4701   17.8898 C   0  0  0  0  0  0  0  0  0  0  0  0
   67.9884   60.1001   17.8348 C   0  0  0  0  0  0  0  0  0  0  0  0
   67.2746   60.0532   19.1880 C   0  0  0  0  0  0  0  0  0  0  0  0
   68.0998   60.5465   20.3254 C   0  0  0  0  0  0  0  0  0  0  0  0
   69.5224   60.0486   20.2662 C   0  0  0  0  0  0  0  0  0  0  0  0
   69.5555   58.8835   19.2935 C   0  0  0  0  0  0  0  0  0  0  0  0
   64.0312   54.9325   17.1639 C   0  0  0  0  0  0  0  0  0  0  0  0
   72.8107   52.1697   12.0758 C   0  0  0  0  0  0  0  0  0  0  0  0
   72.7814   54.2024   13.5198 C   0  0  2  0  0  0  0  0  0  0  0  0
   72.5042   53.6334   12.1825 C   0  0  0  0  0  0  0  0  0  0  0  0
   74.3331   54.2839   13.5809 C   0  0  0  0  0  0  0  0  0  0  0  0
   65.0103   55.9654   17.6017 C   0  0  1  0  0  0  0  0  0  0  0  0
   71.9576   54.5088   15.8381 N   0  0  0  0  0  0  0  0  0  0  0  0
   72.0488   58.7829   16.8336 N   0  0  0  0  0  0  0  0  0  0  0  0
   71.2854   54.7096   18.3862 O   0  0  0  0  0  0  0  0  0  0  0  0
   70.6776   52.7177   17.1974 O   0  0  0  0  0  0  0  0  0  0  0  0
   69.9472   56.1809   15.7080 O   0  0  0  0  0  0  0  0  0  0  0  0
   72.7554   58.2372   18.9273 O   0  0  0  0  0  0  0  0  0  0  0  0
   74.2022   59.5771   17.7583 O   0  0  0  0  0  0  0  0  0  0  0  0
   75.4297   62.1300   19.6227 O   0  0  0  0  0  0  0  0  0  0  0  0
   73.8173   62.3882   21.2526 O   0  0  0  0  0  0  0  0  0  0  0  0
   64.6067   56.3719   18.9013 O   0  0  0  0  0  0  0  0  0  0  0  0
   62.7520   55.1187   17.6774 O   0  0  0  0  0  0  0  0  0  0  0  0
   70.7562   54.2627   16.9829 S   0  0  1  0  0  6  0  0  0  0  0  0
  1  2  1  0
 16  1  1  0
  1 35  1  1
  2  8  1  6
  2 32  1  0
 32  3  1  0
  3 36  2  0
  3 37  1  0
  4  5  1  0
  4 17  1  0
  4 37  1  6
  5 38  1  0
 17  6  1  0
  6 38  1  6
  6 39  1  0
 18  7  1  0
  7 39  1  0
  8 19  1  0
 10  9  1  0
 14  9  1  0
  9 30  1  0
 11 10  1  0
 12 11  1  1
 12 13  1  0
 42 12  1  0
 13 14  1  0
 15 27  1  0
 31 15  1  0
 31 16  1  0
 17 18  1  6
 19 20  1  0
 19 24  1  0
 20 21  1  0
 21 22  1  0
 23 22  1  0
 24 23  1  0
 30 25  1  0
 25 41  1  0
 28 26  1  0
 27 28  1  0
 27 29  1  1
 30 40  1  1
 42 31  1  6
 42 33  2  0
 42 34  2  0
M  END
$$$$
