
     RDKit          3D

 42 45  0  0  0  0  0  0  0  0999 V2000
   70.5767   57.4022   15.3705 C   0  0  1  0  0  0  0  0  0  0  0  0
   70.7448   58.0077   16.7268 C   0  0  2  0  0  0  0  0  0  0  0  0
   72.8737   58.2853   18.0038 C   0  0  0  0  0  0  0  0  0  0  0  0
   74.8329   59.0563   19.1273 C   0  0  1  0  0  0  0  0  0  0  0  0
   75.7666   60.2004   18.8465 C   0  0  0  0  0  0  0  0  0  0  0  0
   74.7158   60.7168   20.7631 C   0  0  1  0  0  0  0  0  0  0  0  0
   73.1475   62.0137   19.9958 C   0  0  0  0  0  0  0  0  0  0  0  0
   69.6650   59.0835   16.9767 C   0  0  0  0  0  0  0  0  0  0  0  0
   69.9067   50.4088   13.9416 C   0  0  0  0  0  0  0  0  0  0  0  0
   68.9247   50.6989   14.8716 C   0  0  0  0  0  0  0  0  0  0  0  0
   69.0247   51.8231   15.6739 C   0  0  0  0  0  0  0  0  0  0  0  0
   70.0971   52.7007   15.5870 C   0  0  0  0  0  0  0  0  0  0  0  0
   71.0579   52.3706   14.6409 C   0  0  0  0  0  0  0  0  0  0  0  0
   70.9658   51.2541   13.8390 C   0  0  0  0  0  0  0  0  0  0  0  0
   68.0241   55.4431   16.8483 C   0  0  0  0  0  0  0  0  0  0  0  0
   69.5087   56.3616   15.2550 C   0  0  0  0  0  0  0  0  0  0  0  0
   73.7993   59.7630   20.0165 C   0  0  1  0  0  0  0  0  0  0  0  0
   72.9377   60.7093   19.2440 C   0  0  0  0  0  0  0  0  0  0  0  0
   69.7510   59.5489   18.3917 C   0  0  0  0  0  0  0  0  0  0  0  0
   69.2962   58.6968   19.3710 C   0  0  0  0  0  0  0  0  0  0  0  0
   69.3776   59.1247   20.6706 C   0  0  0  0  0  0  0  0  0  0  0  0
   69.8922   60.3578   21.0061 C   0  0  0  0  0  0  0  0  0  0  0  0
   70.3416   61.1968   20.0213 C   0  0  0  0  0  0  0  0  0  0  0  0
   70.2675   60.7834   18.7082 C   0  0  0  0  0  0  0  0  0  0  0  0
   70.3908   49.3059   11.7740 C   0  0  0  0  0  0  0  0  0  0  0  0
   65.6733   55.7849   18.4382 C   0  0  0  0  0  0  0  0  0  0  0  0
   67.4002   56.7780   17.0599 C   0  0  2  0  0  0  0  0  0  0  0  0
   66.6593   56.9648   18.3432 C   0  0  0  0  0  0  0  0  0  0  0  0
   66.3644   56.9492   15.9344 C   0  0  0  0  0  0  0  0  0  0  0  0
   69.7200   49.1849   13.1243 C   0  0  2  0  0  0  0  0  0  0  0  0
   69.3143   55.4244   16.2361 N   0  0  0  0  0  0  0  0  0  0  0  0
   71.9913   58.6612   16.9721 N   0  0  0  0  0  0  0  0  0  0  0  0
   69.8554   53.6363   17.9875 O   0  0  0  0  0  0  0  0  0  0  0  0
   71.7381   54.4511   16.7972 O   0  0  0  0  0  0  0  0  0  0  0  0
   70.1751   58.4760   14.5249 O   0  0  0  0  0  0  0  0  0  0  0  0
   72.3383   57.7101   19.0147 O   0  0  0  0  0  0  0  0  0  0  0  0
   74.2414   58.4897   17.9994 O   0  0  0  0  0  0  0  0  0  0  0  0
   75.7134   61.0819   19.9032 O   0  0  0  0  0  0  0  0  0  0  0  0
   73.8576   61.7218   21.1456 O   0  0  0  0  0  0  0  0  0  0  0  0
   68.3491   49.0544   12.9179 O   0  0  0  0  0  0  0  0  0  0  0  0
   70.4943   48.0692   11.1429 O   0  0  0  0  0  0  0  0  0  0  0  0
   70.2552   54.1301   16.5843 S   0  0  1  0  0  6  0  0  0  0  0  0
  1  2  1  0
 16  1  1  0
  1 35  1  6
  2  8  1  6
  2 32  1  0
 32  3  1  0
  3 36  2  0
  3 37  1  0
  4  5  1  0
  4 17  1  0
  4 37  1  6
  5 38  1  0
 17  6  1  0
  6 38  1  6
  6 39  1  0
 18  7  1  0
  7 39  1  0
  8 19  1  0
 10  9  2  0
 14  9  1  0
  9 30  1  0
 11 10  1  0
 12 11  2  0
 12 13  1  0
 42 12  1  0
 13 14  2  0
 15 27  1  0
 31 15  1  0
 31 16  1  0
 17 18  1  6
 19 20  2  0
 19 24  1  0
 20 21  1  0
 21 22  2  0
 23 22  1  0
 24 23  2  0
 30 25  1  0
 25 41  1  0
 28 26  1  0
 27 28  1  0
 27 29  1  6
 30 40  1  6
 42 31  1  6
 42 33  2  0
 42 34  2  0
M  END
$$$$
