
     RDKit          3D

 42 45  0  0  0  0  0  0  0  0999 V2000
   70.9164   57.0135   15.1952 C   0  0  1  0  0  0  0  0  0  0  0  0
   70.5955   57.4801   16.5786 C   0  0  2  0  0  0  0  0  0  0  0  0
   72.5819   58.1160   17.9534 C   0  0  0  0  0  0  0  0  0  0  0  0
   74.1508   59.3630   19.2488 C   0  0  1  0  0  0  0  0  0  0  0  0
   75.1843   60.4515   19.1668 C   0  0  0  0  0  0  0  0  0  0  0  0
   73.7967   61.0415   20.8313 C   0  0  1  0  0  0  0  0  0  0  0  0
   72.4915   62.4161   19.7650 C   0  0  0  0  0  0  0  0  0  0  0  0
   69.1987   58.1385   16.6173 C   0  0  0  0  0  0  0  0  0  0  0  0
   66.3810   50.6999   13.6390 C   0  0  0  0  0  0  0  0  0  0  0  0
   66.1799   52.0546   13.4448 C   0  0  0  0  0  0  0  0  0  0  0  0
   66.9902   52.9842   14.0746 C   0  0  0  0  0  0  0  0  0  0  0  0
   68.0276   52.6099   14.9183 C   0  0  0  0  0  0  0  0  0  0  0  0
   68.1926   51.2416   15.0837 C   0  0  0  0  0  0  0  0  0  0  0  0
   67.3907   50.3104   14.4608 C   0  0  0  0  0  0  0  0  0  0  0  0
   71.2763   54.1099   14.3947 C   0  0  0  0  0  0  0  0  0  0  0  0
   69.9418   56.0504   14.5955 C   0  0  0  0  0  0  0  0  0  0  0  0
   72.9992   60.1332   19.9115 C   0  0  1  0  0  0  0  0  0  0  0  0
   72.3664   61.1188   18.9827 C   0  0  0  0  0  0  0  0  0  0  0  0
   68.9302   58.6444   17.9949 C   0  0  0  0  0  0  0  0  0  0  0  0
   67.7163   59.2485   18.2261 C   0  0  0  0  0  0  0  0  0  0  0  0
   67.4701   59.7110   19.4926 C   0  0  0  0  0  0  0  0  0  0  0  0
   68.3895   59.5860   20.5110 C   0  0  0  0  0  0  0  0  0  0  0  0
   69.5946   58.9825   20.2675 C   0  0  0  0  0  0  0  0  0  0  0  0
   69.8599   58.5111   18.9994 C   0  0  0  0  0  0  0  0  0  0  0  0
   66.2215   48.8420   12.0043 C   0  0  0  0  0  0  0  0  0  0  0  0
   73.3950   52.3174   14.3760 C   0  0  0  0  0  0  0  0  0  0  0  0
   72.4728   54.3855   15.2365 C   0  0  2  0  0  0  0  0  0  0  0  0
   73.7525   53.7573   14.7913 C   0  0  0  0  0  0  0  0  0  0  0  0
   72.1634   53.7977   16.6250 C   0  0  0  0  0  0  0  0  0  0  0  0
   65.4669   49.7742   12.9260 C   0  0  2  0  0  0  0  0  0  0  0  0
   70.0448   54.7008   14.8118 N   0  0  0  0  0  0  0  0  0  0  0  0
   71.4845   58.4498   17.1357 N   0  0  0  0  0  0  0  0  0  0  0  0
   68.0838   54.6885   16.4586 O   0  0  0  0  0  0  0  0  0  0  0  0
   69.7638   53.0779   16.9152 O   0  0  0  0  0  0  0  0  0  0  0  0
   70.8682   58.1821   14.3820 O   0  0  0  0  0  0  0  0  0  0  0  0
   72.4394   57.0716   18.6803 O   0  0  0  0  0  0  0  0  0  0  0  0
   73.7700   58.8202   18.0228 O   0  0  0  0  0  0  0  0  0  0  0  0
   74.9669   61.3437   20.1931 O   0  0  0  0  0  0  0  0  0  0  0  0
   72.9360   62.0955   21.0342 O   0  0  0  0  0  0  0  0  0  0  0  0
   64.6291   50.5693   12.1483 O   0  0  0  0  0  0  0  0  0  0  0  0
   65.3914   47.8489   11.4914 O   0  0  0  0  0  0  0  0  0  0  0  0
   69.0707   53.7572   15.7297 S   0  0  1  0  0  6  0  0  0  0  0  0
  1  2  1  0
 16  1  1  0
  1 35  1  6
  2  8  1  6
  2 32  1  0
 32  3  1  0
  3 36  2  0
  3 37  1  0
  4  5  1  0
  4 17  1  0
  4 37  1  6
  5 38  1  0
 17  6  1  0
  6 38  1  6
  6 39  1  0
 18  7  1  0
  7 39  1  0
  8 19  1  0
 10  9  2  0
 14  9  1  0
  9 30  1  0
 11 10  1  0
 12 11  2  0
 12 13  1  0
 42 12  1  0
 13 14  2  0
 15 27  1  0
 31 15  1  0
 31 16  1  0
 17 18  1  6
 19 20  2  0
 19 24  1  0
 20 21  1  0
 21 22  2  0
 23 22  1  0
 24 23  2  0
 30 25  1  0
 25 41  1  0
 28 26  1  0
 27 28  1  0
 27 29  1  1
 30 40  1  6
 42 31  1  6
 42 33  2  0
 42 34  2  0
M  END
$$$$
