
     RDKit          3D

 42 45  0  0  0  0  0  0  0  0999 V2000
   70.9884   57.8432   15.1208 C   0  0  1  0  0  0  0  0  0  0  0  0
   70.7397   57.9821   16.5882 C   0  0  2  0  0  0  0  0  0  0  0  0
   72.1958   57.8076   18.6105 C   0  0  0  0  0  0  0  0  0  0  0  0
   73.3248   59.2234   20.1648 C   0  0  1  0  0  0  0  0  0  0  0  0
   74.1916   59.6216   19.0030 C   0  0  0  0  0  0  0  0  0  0  0  0
   74.2139   61.3666   20.4166 C   0  0  1  0  0  0  0  0  0  0  0  0
   72.6849   62.6134   19.5012 C   0  0  0  0  0  0  0  0  0  0  0  0
   69.6397   59.0335   16.8535 C   0  0  0  0  0  0  0  0  0  0  0  0
   66.7334   51.7963   13.4004 C   0  0  0  0  0  0  0  0  0  0  0  0
   66.4497   53.1475   13.3165 C   0  0  0  0  0  0  0  0  0  0  0  0
   67.1554   54.0638   14.0778 C   0  0  0  0  0  0  0  0  0  0  0  0
   68.1661   53.6793   14.9488 C   0  0  0  0  0  0  0  0  0  0  0  0
   68.4166   52.3149   15.0006 C   0  0  0  0  0  0  0  0  0  0  0  0
   67.7189   51.3969   14.2465 C   0  0  0  0  0  0  0  0  0  0  0  0
   71.6790   54.8587   15.8672 C   0  0  0  0  0  0  0  0  0  0  0  0
   70.6467   56.5122   14.5304 C   0  0  0  0  0  0  0  0  0  0  0  0
   72.9261   60.6097   20.6920 C   0  0  1  0  0  0  0  0  0  0  0  0
   71.9627   61.3065   19.7860 C   0  0  0  0  0  0  0  0  0  0  0  0
   69.2842   59.0200   18.3024 C   0  0  0  0  0  0  0  0  0  0  0  0
   69.3685   60.2085   18.9899 C   0  0  0  0  0  0  0  0  0  0  0  0
   69.0397   60.1951   20.3204 C   0  0  0  0  0  0  0  0  0  0  0  0
   68.6372   59.0461   20.9652 C   0  0  0  0  0  0  0  0  0  0  0  0
   68.5575   57.8693   20.2691 C   0  0  0  0  0  0  0  0  0  0  0  0
   68.8845   57.8635   18.9299 C   0  0  0  0  0  0  0  0  0  0  0  0
   64.6463   50.4675   13.2345 C   0  0  0  0  0  0  0  0  0  0  0  0
   73.3498   52.4322   15.1470 C   0  0  0  0  0  0  0  0  0  0  0  0
   72.8630   54.7983   14.9668 C   0  0  2  0  0  0  0  0  0  0  0  0
   73.0091   53.5563   14.1502 C   0  0  0  0  0  0  0  0  0  0  0  0
   74.0994   54.8617   15.8813 C   0  0  0  0  0  0  0  0  0  0  0  0
   65.9289   50.8849   12.5501 C   0  0  2  0  0  0  0  0  0  0  0  0
   70.4784   55.4027   15.3174 N   0  0  0  0  0  0  0  0  0  0  0  0
   71.8559   58.3975   17.3772 N   0  0  0  0  0  0  0  0  0  0  0  0
   68.1128   55.9979   16.0967 O   0  0  0  0  0  0  0  0  0  0  0  0
   69.1684   54.2944   17.3651 O   0  0  0  0  0  0  0  0  0  0  0  0
   70.1193   58.7857   14.4998 O   0  0  0  0  0  0  0  0  0  0  0  0
   72.5138   56.5681   18.5679 O   0  0  0  0  0  0  0  0  0  0  0  0
   72.2087   58.4582   19.8307 O   0  0  0  0  0  0  0  0  0  0  0  0
   74.7567   60.8477   19.2747 O   0  0  0  0  0  0  0  0  0  0  0  0
   73.7851   62.6714   20.3364 O   0  0  0  0  0  0  0  0  0  0  0  0
   66.7046   49.7460   12.3497 O   0  0  0  0  0  0  0  0  0  0  0  0
   63.9968   49.4576   12.5296 O   0  0  0  0  0  0  0  0  0  0  0  0
   69.0780   54.8098   15.9251 S   0  0  1  0  0  6  0  0  0  0  0  0
  1  2  1  0
 16  1  1  0
  1 35  1  6
  2  8  1  6
  2 32  1  0
 32  3  1  0
  3 36  2  0
  3 37  1  0
  4  5  1  0
  4 17  1  0
  4 37  1  6
  5 38  1  0
 17  6  1  0
  6 38  1  6
  6 39  1  0
 18  7  1  0
  7 39  1  0
  8 19  1  0
 10  9  2  0
 14  9  1  0
  9 30  1  0
 11 10  1  0
 12 11  2  0
 12 13  1  0
 42 12  1  0
 13 14  2  0
 15 27  1  0
 31 15  1  0
 31 16  1  0
 17 18  1  6
 19 20  2  0
 19 24  1  0
 20 21  1  0
 21 22  2  0
 23 22  1  0
 24 23  2  0
 30 25  1  0
 25 41  1  0
 28 26  1  0
 27 28  1  0
 27 29  1  1
 30 40  1  1
 42 31  1  6
 42 33  2  0
 42 34  2  0
M  END
$$$$
