
     RDKit          3D

 42 45  0  0  0  0  0  0  0  0999 V2000
   71.4774   57.3898   15.4595 C   0  0  1  0  0  0  0  0  0  0  0  0
   70.8710   57.6666   16.7975 C   0  0  2  0  0  0  0  0  0  0  0  0
   72.7227   57.8856   18.4599 C   0  0  0  0  0  0  0  0  0  0  0  0
   73.8095   59.2449   20.0927 C   0  0  1  0  0  0  0  0  0  0  0  0
   74.3778   59.9630   18.9006 C   0  0  0  0  0  0  0  0  0  0  0  0
   73.9642   61.5481   20.4371 C   0  0  1  0  0  0  0  0  0  0  0  0
   72.0276   62.2520   19.7411 C   0  0  0  0  0  0  0  0  0  0  0  0
   69.5558   58.4615   16.6416 C   0  0  0  0  0  0  0  0  0  0  0  0
   66.6492   51.4068   13.7184 C   0  0  0  0  0  0  0  0  0  0  0  0
   66.3151   52.7488   13.7448 C   0  0  0  0  0  0  0  0  0  0  0  0
   67.1373   53.6668   14.3761 C   0  0  0  0  0  0  0  0  0  0  0  0
   68.3182   53.2932   15.0037 C   0  0  0  0  0  0  0  0  0  0  0  0
   68.6135   51.9378   14.9523 C   0  0  0  0  0  0  0  0  0  0  0  0
   67.8008   51.0181   14.3263 C   0  0  0  0  0  0  0  0  0  0  0  0
   71.7436   54.3041   14.7273 C   0  0  0  0  0  0  0  0  0  0  0  0
   70.7230   56.4318   14.5936 C   0  0  0  0  0  0  0  0  0  0  0  0
   73.0311   60.3921   20.7534 C   0  0  1  0  0  0  0  0  0  0  0  0
   71.8075   60.7672   19.9809 C   0  0  0  0  0  0  0  0  0  0  0  0
   69.0333   58.8198   17.9923 C   0  0  0  0  0  0  0  0  0  0  0  0
   68.5995   57.7942   18.7999 C   0  0  0  0  0  0  0  0  0  0  0  0
   68.1215   58.1245   20.0412 C   0  0  0  0  0  0  0  0  0  0  0  0
   68.0686   59.4280   20.4841 C   0  0  0  0  0  0  0  0  0  0  0  0
   68.5036   60.4398   19.6701 C   0  0  0  0  0  0  0  0  0  0  0  0
   68.9876   60.1266   18.4179 C   0  0  0  0  0  0  0  0  0  0  0  0
   66.4153   49.2581   12.5028 C   0  0  0  0  0  0  0  0  0  0  0  0
   73.7337   52.9528   13.7928 C   0  0  0  0  0  0  0  0  0  0  0  0
   73.0620   54.9302   15.0204 C   0  0  2  0  0  0  0  0  0  0  0  0
   74.2616   54.2337   14.4667 C   0  0  0  0  0  0  0  0  0  0  0  0
   73.2165   54.9050   16.5516 C   0  0  0  0  0  0  0  0  0  0  0  0
   65.7118   50.4927   13.0208 C   0  0  2  0  0  0  0  0  0  0  0  0
   70.5851   55.1123   14.9383 N   0  0  0  0  0  0  0  0  0  0  0  0
   71.6690   58.4326   17.7017 N   0  0  0  0  0  0  0  0  0  0  0  0
   68.4325   55.5570   16.2521 O   0  0  0  0  0  0  0  0  0  0  0  0
   69.8110   53.8570   17.1659 O   0  0  0  0  0  0  0  0  0  0  0  0
   71.4633   58.6380   14.7732 O   0  0  0  0  0  0  0  0  0  0  0  0
   73.4875   57.0650   17.8426 O   0  0  0  0  0  0  0  0  0  0  0  0
   72.9801   58.1665   19.7892 O   0  0  0  0  0  0  0  0  0  0  0  0
   74.5319   61.2937   19.2201 O   0  0  0  0  0  0  0  0  0  0  0  0
   73.1243   62.6364   20.4901 O   0  0  0  0  0  0  0  0  0  0  0  0
   65.2130   51.1984   11.9289 O   0  0  0  0  0  0  0  0  0  0  0  0
   66.5391   48.2876   13.4936 O   0  0  0  0  0  0  0  0  0  0  0  0
   69.3806   54.4263   15.8101 S   0  0  1  0  0  6  0  0  0  0  0  0
  1  2  1  0
 16  1  1  0
  1 35  1  6
  2  8  1  6
  2 32  1  0
 32  3  1  0
  3 36  2  0
  3 37  1  0
  4  5  1  0
  4 17  1  0
  4 37  1  6
  5 38  1  0
 17  6  1  0
  6 38  1  6
  6 39  1  0
 18  7  1  0
  7 39  1  0
  8 19  1  0
 10  9  2  0
 14  9  1  0
  9 30  1  0
 11 10  1  0
 12 11  2  0
 12 13  1  0
 42 12  1  0
 13 14  2  0
 15 27  1  0
 31 15  1  0
 31 16  1  0
 17 18  1  6
 19 20  2  0
 19 24  1  0
 20 21  1  0
 21 22  2  0
 23 22  1  0
 24 23  2  0
 30 25  1  0
 25 41  1  0
 28 26  1  0
 27 28  1  0
 27 29  1  1
 30 40  1  6
 42 31  1  6
 42 33  2  0
 42 34  2  0
M  END
$$$$
