
     RDKit          3D

 42 45  0  0  0  0  0  0  0  0999 V2000
   71.5477   56.8877   15.7451 C   0  0  1  0  0  0  0  0  0  0  0  0
   70.8493   57.2124   17.0263 C   0  0  2  0  0  0  0  0  0  0  0  0
   72.2426   57.9797   18.9525 C   0  0  0  0  0  0  0  0  0  0  0  0
   73.5164   59.9886   19.1438 C   0  0  1  0  0  0  0  0  0  0  0  0
   74.3643   60.8682   18.2681 C   0  0  0  0  0  0  0  0  0  0  0  0
   74.0336   62.0217   20.1666 C   0  0  1  0  0  0  0  0  0  0  0  0
   72.3708   63.2838   19.5566 C   0  0  0  0  0  0  0  0  0  0  0  0
   70.4795   58.7113   17.0763 C   0  0  0  0  0  0  0  0  0  0  0  0
   66.1732   51.5832   13.8697 C   0  0  0  0  0  0  0  0  0  0  0  0
   66.0446   52.9577   13.7832 C   0  0  0  0  0  0  0  0  0  0  0  0
   66.9069   53.7906   14.4762 C   0  0  0  0  0  0  0  0  0  0  0  0
   67.9265   53.2967   15.2789 C   0  0  0  0  0  0  0  0  0  0  0  0
   68.0182   51.9127   15.3360 C   0  0  0  0  0  0  0  0  0  0  0  0
   67.1643   51.0773   14.6496 C   0  0  0  0  0  0  0  0  0  0  0  0
   71.5252   53.6736   15.7847 C   0  0  0  0  0  0  0  0  0  0  0  0
   70.9301   55.7957   14.9310 C   0  0  0  0  0  0  0  0  0  0  0  0
   72.8731   61.0488   20.0497 C   0  0  1  0  0  0  0  0  0  0  0  0
   71.8561   61.8721   19.3269 C   0  0  0  0  0  0  0  0  0  0  0  0
   69.6928   58.9839   18.3143 C   0  0  0  0  0  0  0  0  0  0  0  0
   70.1970   59.9092   19.1984 C   0  0  0  0  0  0  0  0  0  0  0  0
   69.4724   60.1601   20.3343 C   0  0  0  0  0  0  0  0  0  0  0  0
   68.2812   59.5213   20.6008 C   0  0  0  0  0  0  0  0  0  0  0  0
   67.7902   58.6020   19.7123 C   0  0  0  0  0  0  0  0  0  0  0  0
   68.5056   58.3366   18.5641 C   0  0  0  0  0  0  0  0  0  0  0  0
   65.6164   49.3108   13.0479 C   0  0  0  0  0  0  0  0  0  0  0  0
   74.7469   54.9856   14.2296 C   0  0  0  0  0  0  0  0  0  0  0  0
   72.9310   54.1172   15.5773 C   0  0  2  0  0  0  0  0  0  0  0  0
   73.3538   54.3314   14.1610 C   0  0  0  0  0  0  0  0  0  0  0  0
   73.8212   52.9886   16.1277 C   0  0  0  0  0  0  0  0  0  0  0  0
   65.2072   50.7661   13.0950 C   0  0  2  0  0  0  0  0  0  0  0  0
   70.5004   54.6290   15.5080 N   0  0  0  0  0  0  0  0  0  0  0  0
   71.5888   56.9668   18.2237 N   0  0  0  0  0  0  0  0  0  0  0  0
   68.2834   55.6612   16.2679 O   0  0  0  0  0  0  0  0  0  0  0  0
   69.0670   53.8912   17.6384 O   0  0  0  0  0  0  0  0  0  0  0  0
   71.4558   58.0697   14.9552 O   0  0  0  0  0  0  0  0  0  0  0  0
   72.5595   57.6847   20.1575 O   0  0  0  0  0  0  0  0  0  0  0  0
   72.5567   59.2363   18.4685 O   0  0  0  0  0  0  0  0  0  0  0  0
   74.7095   61.9961   18.9789 O   0  0  0  0  0  0  0  0  0  0  0  0
   73.4041   63.2063   20.4718 O   0  0  0  0  0  0  0  0  0  0  0  0
   65.2240   51.2641   11.7947 O   0  0  0  0  0  0  0  0  0  0  0  0
   64.5432   48.4694   13.3290 O   0  0  0  0  0  0  0  0  0  0  0  0
   69.0338   54.3197   16.1677 S   0  0  1  0  0  6  0  0  0  0  0  0
  1  2  1  0
 16  1  1  0
  1 35  1  6
  2  8  1  6
  2 32  1  0
 32  3  1  0
  3 36  2  0
  3 37  1  0
  4  5  1  0
  4 17  1  0
  4 37  1  6
  5 38  1  0
 17  6  1  0
  6 38  1  6
  6 39  1  0
 18  7  1  0
  7 39  1  0
  8 19  1  0
 10  9  2  0
 14  9  1  0
  9 30  1  0
 11 10  1  0
 12 11  2  0
 12 13  1  0
 42 12  1  0
 13 14  2  0
 15 27  1  0
 31 15  1  0
 31 16  1  0
 17 18  1  6
 19 20  2  0
 19 24  1  0
 20 21  1  0
 21 22  2  0
 23 22  1  0
 24 23  2  0
 30 25  1  0
 25 41  1  0
 28 26  1  0
 27 28  1  0
 27 29  1  6
 30 40  1  6
 42 31  1  6
 42 33  2  0
 42 34  2  0
M  END
$$$$
