
     RDKit          3D

 42 45  0  0  0  0  0  0  0  0999 V2000
   71.5298   56.8935   15.8932 C   0  0  1  0  0  0  0  0  0  0  0  0
   70.7627   57.2118   17.1360 C   0  0  2  0  0  0  0  0  0  0  0  0
   72.8161   58.0594   18.2785 C   0  0  0  0  0  0  0  0  0  0  0  0
   74.2983   59.4946   19.4777 C   0  0  1  0  0  0  0  0  0  0  0  0
   74.4065   60.2287   18.1704 C   0  0  0  0  0  0  0  0  0  0  0  0
   74.4759   61.8033   19.7704 C   0  0  1  0  0  0  0  0  0  0  0  0
   72.3938   62.4319   19.7715 C   0  0  0  0  0  0  0  0  0  0  0  0
   69.4455   57.9395   16.7876 C   0  0  0  0  0  0  0  0  0  0  0  0
   66.3935   51.3093   13.7823 C   0  0  0  0  0  0  0  0  0  0  0  0
   67.4420   50.8574   14.5632 C   0  0  0  0  0  0  0  0  0  0  0  0
   68.2391   51.7516   15.2578 C   0  0  0  0  0  0  0  0  0  0  0  0
   68.0298   53.1232   15.2065 C   0  0  0  0  0  0  0  0  0  0  0  0
   66.9675   53.5313   14.4114 C   0  0  0  0  0  0  0  0  0  0  0  0
   66.1699   52.6481   13.7172 C   0  0  0  0  0  0  0  0  0  0  0  0
   71.5165   53.7012   15.6400 C   0  0  0  0  0  0  0  0  0  0  0  0
   70.8995   55.8866   14.9845 C   0  0  0  0  0  0  0  0  0  0  0  0
   73.7459   60.6146   20.3716 C   0  0  1  0  0  0  0  0  0  0  0  0
   72.3212   60.9408   20.0582 C   0  0  0  0  0  0  0  0  0  0  0  0
   68.9229   58.6233   18.0063 C   0  0  0  0  0  0  0  0  0  0  0  0
   68.5035   57.8317   19.0502 C   0  0  0  0  0  0  0  0  0  0  0  0
   68.0254   58.4611   20.1698 C   0  0  0  0  0  0  0  0  0  0  0  0
   67.9585   59.8337   20.2678 C   0  0  0  0  0  0  0  0  0  0  0  0
   68.3793   60.6104   19.2212 C   0  0  0  0  0  0  0  0  0  0  0  0
   68.8632   59.9948   18.0866 C   0  0  0  0  0  0  0  0  0  0  0  0
   65.6020   48.9593   13.8040 C   0  0  0  0  0  0  0  0  0  0  0  0
   74.5555   55.5050   15.7495 C   0  0  0  0  0  0  0  0  0  0  0  0
   72.8274   53.9848   14.9940 C   0  0  2  0  0  0  0  0  0  0  0  0
   73.2437   55.4184   14.9462 C   0  0  0  0  0  0  0  0  0  0  0  0
   72.6916   53.5257   13.5312 C   0  0  0  0  0  0  0  0  0  0  0  0
   65.5911   50.2831   13.0723 C   0  0  2  0  0  0  0  0  0  0  0  0
   70.4816   54.6667   15.4490 N   0  0  0  0  0  0  0  0  0  0  0  0
   71.4213   58.0570   18.0809 N   0  0  0  0  0  0  0  0  0  0  0  0
   68.1618   55.5623   16.0606 O   0  0  0  0  0  0  0  0  0  0  0  0
   69.0210   53.9432   17.5658 O   0  0  0  0  0  0  0  0  0  0  0  0
   71.5798   58.1126   15.1579 O   0  0  0  0  0  0  0  0  0  0  0  0
   73.5244   57.7291   17.2642 O   0  0  0  0  0  0  0  0  0  0  0  0
   73.4550   58.3849   19.4609 O   0  0  0  0  0  0  0  0  0  0  0  0
   74.6105   61.5654   18.4313 O   0  0  0  0  0  0  0  0  0  0  0  0
   73.6636   62.8598   20.1121 O   0  0  0  0  0  0  0  0  0  0  0  0
   66.1965   50.0986   11.8319 O   0  0  0  0  0  0  0  0  0  0  0  0
   64.7096   48.0544   13.2353 O   0  0  0  0  0  0  0  0  0  0  0  0
   69.0167   54.2811   16.0713 S   0  0  1  0  0  6  0  0  0  0  0  0
  1  2  1  0
 16  1  1  0
  1 35  1  6
  2  8  1  6
  2 32  1  0
 32  3  1  0
  3 36  2  0
  3 37  1  0
  4  5  1  0
  4 17  1  0
  4 37  1  6
  5 38  1  0
 17  6  1  0
  6 38  1  6
  6 39  1  0
 18  7  1  0
  7 39  1  0
  8 19  1  0
 10  9  2  0
 14  9  1  0
  9 30  1  0
 11 10  1  0
 12 11  2  0
 12 13  1  0
 42 12  1  0
 13 14  2  0
 15 27  1  0
 31 15  1  0
 31 16  1  0
 17 18  1  6
 19 20  2  0
 19 24  1  0
 20 21  1  0
 21 22  2  0
 23 22  1  0
 24 23  2  0
 30 25  1  0
 25 41  1  0
 28 26  1  0
 27 28  1  0
 27 29  1  6
 30 40  1  6
 42 31  1  6
 42 33  2  0
 42 34  2  0
M  END
$$$$
