
     RDKit          3D

 42 45  0  0  0  0  0  0  0  0999 V2000
   70.8520   57.1417   15.3723 C   0  0  1  0  0  0  0  0  0  0  0  0
   71.1438   57.8379   16.6625 C   0  0  2  0  0  0  0  0  0  0  0  0
   72.9713   58.7362   18.1094 C   0  0  0  0  0  0  0  0  0  0  0  0
   74.4852   59.9675   19.4830 C   0  0  1  0  0  0  0  0  0  0  0  0
   75.3695   61.1829   19.5014 C   0  0  0  0  0  0  0  0  0  0  0  0
   74.0489   61.3527   21.3101 C   0  0  1  0  0  0  0  0  0  0  0  0
   72.5100   62.6772   20.5307 C   0  0  0  0  0  0  0  0  0  0  0  0
   70.4234   59.2032   16.7157 C   0  0  0  0  0  0  0  0  0  0  0  0
   66.6215   51.2819   14.0918 C   0  0  0  0  0  0  0  0  0  0  0  0
   66.4050   52.6453   14.0050 C   0  0  0  0  0  0  0  0  0  0  0  0
   67.2966   53.5376   14.5762 C   0  0  0  0  0  0  0  0  0  0  0  0
   68.4332   53.1162   15.2533 C   0  0  0  0  0  0  0  0  0  0  0  0
   68.6101   51.7408   15.3155 C   0  0  0  0  0  0  0  0  0  0  0  0
   67.7278   50.8465   14.7499 C   0  0  0  0  0  0  0  0  0  0  0  0
   71.5676   53.6015   14.4223 C   0  0  0  0  0  0  0  0  0  0  0  0
   71.5702   55.8472   15.1595 C   0  0  0  0  0  0  0  0  0  0  0  0
   73.3013   60.4822   20.3149 C   0  0  1  0  0  0  0  0  0  0  0  0
   72.4856   61.4941   19.5765 C   0  0  0  0  0  0  0  0  0  0  0  0
   69.8452   59.4028   18.0765 C   0  0  0  0  0  0  0  0  0  0  0  0
   69.3117   60.6370   18.3670 C   0  0  0  0  0  0  0  0  0  0  0  0
   68.7792   60.8184   19.6168 C   0  0  0  0  0  0  0  0  0  0  0  0
   68.7678   59.8162   20.5621 C   0  0  0  0  0  0  0  0  0  0  0  0
   69.3023   58.5920   20.2601 C   0  0  0  0  0  0  0  0  0  0  0  0
   69.8426   58.3910   19.0078 C   0  0  0  0  0  0  0  0  0  0  0  0
   66.2351   49.1065   12.9660 C   0  0  0  0  0  0  0  0  0  0  0  0
   73.2349   51.3273   14.2031 C   0  0  0  0  0  0  0  0  0  0  0  0
   73.0398   53.7413   14.2513 C   0  0  2  0  0  0  0  0  0  0  0  0
   73.7309   52.6256   13.5384 C   0  0  0  0  0  0  0  0  0  0  0  0
   73.6335   53.7800   15.6709 C   0  0  0  0  0  0  0  0  0  0  0  0
   65.6162   50.3981   13.4521 C   0  0  2  0  0  0  0  0  0  0  0  0
   70.8965   54.6544   15.1157 N   0  0  0  0  0  0  0  0  0  0  0  0
   72.5184   58.1270   16.9227 N   0  0  0  0  0  0  0  0  0  0  0  0
   68.7505   55.4887   16.2365 O   0  0  0  0  0  0  0  0  0  0  0  0
   69.8778   53.7717   17.4223 O   0  0  0  0  0  0  0  0  0  0  0  0
   69.4651   56.8205   15.4219 O   0  0  0  0  0  0  0  0  0  0  0  0
   72.2784   58.4974   19.1593 O   0  0  0  0  0  0  0  0  0  0  0  0
   74.0825   59.5524   18.2147 O   0  0  0  0  0  0  0  0  0  0  0  0
   75.1226   61.8901   20.6570 O   0  0  0  0  0  0  0  0  0  0  0  0
   73.0840   62.2469   21.7125 O   0  0  0  0  0  0  0  0  0  0  0  0
   65.1307   51.0902   12.3456 O   0  0  0  0  0  0  0  0  0  0  0  0
   65.3067   48.3173   12.2924 O   0  0  0  0  0  0  0  0  0  0  0  0
   69.5807   54.2156   15.9863 S   0  0  1  0  0  6  0  0  0  0  0  0
  1  2  1  0
 16  1  1  0
  1 35  1  1
  2  8  1  6
  2 32  1  0
 32  3  1  0
  3 36  2  0
  3 37  1  0
  4  5  1  0
  4 17  1  0
  4 37  1  6
  5 38  1  0
 17  6  1  0
  6 38  1  6
  6 39  1  0
 18  7  1  0
  7 39  1  0
  8 19  1  0
 10  9  2  0
 14  9  1  0
  9 30  1  0
 11 10  1  0
 12 11  2  0
 12 13  1  0
 42 12  1  0
 13 14  2  0
 15 27  1  0
 31 15  1  0
 31 16  1  0
 17 18  1  6
 19 20  2  0
 19 24  1  0
 20 21  1  0
 21 22  2  0
 23 22  1  0
 24 23  2  0
 30 25  1  0
 25 41  1  0
 28 26  1  0
 27 28  1  0
 27 29  1  1
 30 40  1  6
 42 31  1  6
 42 33  2  0
 42 34  2  0
M  END
$$$$
