
     RDKit          3D

 42 45  0  0  0  0  0  0  0  0999 V2000
   70.7056   57.7693   14.7297 C   0  0  1  0  0  0  0  0  0  0  0  0
   70.5262   57.8713   16.2102 C   0  0  2  0  0  0  0  0  0  0  0  0
   72.1749   58.3181   18.0330 C   0  0  0  0  0  0  0  0  0  0  0  0
   73.8679   59.2449   19.4364 C   0  0  1  0  0  0  0  0  0  0  0  0
   75.0201   60.1762   19.1823 C   0  0  0  0  0  0  0  0  0  0  0  0
   73.5959   61.3023   20.5043 C   0  0  1  0  0  0  0  0  0  0  0  0
   72.5299   62.4646   19.0067 C   0  0  0  0  0  0  0  0  0  0  0  0
   70.1947   59.3243   16.6164 C   0  0  0  0  0  0  0  0  0  0  0  0
   72.5413   50.2987   14.4587 C   0  0  0  0  0  0  0  0  0  0  0  0
   71.5833   50.5450   15.4256 C   0  0  0  0  0  0  0  0  0  0  0  0
   71.2529   51.8436   15.7746 C   0  0  0  0  0  0  0  0  0  0  0  0
   71.8560   52.9450   15.1821 C   0  0  0  0  0  0  0  0  0  0  0  0
   72.8104   52.6508   14.2180 C   0  0  0  0  0  0  0  0  0  0  0  0
   73.1448   51.3617   13.8651 C   0  0  0  0  0  0  0  0  0  0  0  0
   69.0464   54.5197   14.6354 C   0  0  0  0  0  0  0  0  0  0  0  0
   70.2379   56.4918   14.1084 C   0  0  0  0  0  0  0  0  0  0  0  0
   72.7669   60.2622   19.7708 C   0  0  1  0  0  0  0  0  0  0  0  0
   72.3144   61.0254   18.5677 C   0  0  0  0  0  0  0  0  0  0  0  0
   69.6568   59.3366   18.0079 C   0  0  0  0  0  0  0  0  0  0  0  0
   69.5519   58.1305   18.6609 C   0  0  0  0  0  0  0  0  0  0  0  0
   69.0594   58.1435   19.9398 C   0  0  0  0  0  0  0  0  0  0  0  0
   68.6780   59.3091   20.5673 C   0  0  0  0  0  0  0  0  0  0  0  0
   68.7875   60.5035   19.9061 C   0  0  0  0  0  0  0  0  0  0  0  0
   69.2807   60.5098   18.6187 C   0  0  0  0  0  0  0  0  0  0  0  0
   71.5839   48.0273   14.1876 C   0  0  0  0  0  0  0  0  0  0  0  0
   65.9441   56.2646   16.0090 C   0  0  0  0  0  0  0  0  0  0  0  0
   67.7347   55.2120   14.7625 C   0  0  2  0  0  0  0  0  0  0  0  0
   67.3611   55.6729   16.1331 C   0  0  0  0  0  0  0  0  0  0  0  0
   66.6668   54.1846   14.3464 C   0  0  0  0  0  0  0  0  0  0  0  0
   72.8338   48.8781   14.1467 C   0  0  2  0  0  0  0  0  0  0  0  0
   70.2168   55.3181   14.8160 N   0  0  0  0  0  0  0  0  0  0  0  0
   71.6553   57.5061   17.0058 N   0  0  0  0  0  0  0  0  0  0  0  0
   71.0811   54.5140   17.0884 O   0  0  0  0  0  0  0  0  0  0  0  0
   72.7454   55.4333   15.6705 O   0  0  0  0  0  0  0  0  0  0  0  0
   69.8893   58.7986   14.1788 O   0  0  0  0  0  0  0  0  0  0  0  0
   71.3147   58.9871   18.7051 O   0  0  0  0  0  0  0  0  0  0  0  0
   73.5141   58.4387   18.3558 O   0  0  0  0  0  0  0  0  0  0  0  0
   74.8338   61.3206   19.9254 O   0  0  0  0  0  0  0  0  0  0  0  0
   72.8469   62.4463   20.3522 O   0  0  0  0  0  0  0  0  0  0  0  0
   73.6989   48.4267   15.1401 O   0  0  0  0  0  0  0  0  0  0  0  0
   71.7850   46.7947   13.5721 O   0  0  0  0  0  0  0  0  0  0  0  0
   71.4625   54.5987   15.5984 S   0  0  1  0  0  6  0  0  0  0  0  0
  1  2  1  0
 16  1  1  0
  1 35  1  6
  2  8  1  6
  2 32  1  0
 32  3  1  0
  3 36  2  0
  3 37  1  0
  4  5  1  0
  4 17  1  0
  4 37  1  6
  5 38  1  0
 17  6  1  0
  6 38  1  6
  6 39  1  0
 18  7  1  0
  7 39  1  0
  8 19  1  0
 10  9  2  0
 14  9  1  0
  9 30  1  0
 11 10  1  0
 12 11  2  0
 12 13  1  0
 42 12  1  0
 13 14  2  0
 15 27  1  0
 31 15  1  0
 31 16  1  0
 17 18  1  6
 19 20  2  0
 19 24  1  0
 20 21  1  0
 21 22  2  0
 23 22  1  0
 24 23  2  0
 30 25  1  0
 25 41  1  0
 28 26  1  0
 27 28  1  0
 27 29  1  1
 30 40  1  1
 42 31  1  6
 42 33  2  0
 42 34  2  0
M  END
$$$$
