
     RDKit          3D

 42 45  0  0  0  0  0  0  0  0999 V2000
   71.4488   57.3831   15.9401 C   0  0  1  0  0  0  0  0  0  0  0  0
   70.0641   56.8853   16.2032 C   0  0  2  0  0  0  0  0  0  0  0  0
   69.3473   54.5770   15.5724 C   0  0  0  0  0  0  0  0  0  0  0  0
   68.9547   52.2760   15.0762 C   0  0  1  0  0  0  0  0  0  0  0  0
   68.3054   52.4054   13.7267 C   0  0  0  0  0  0  0  0  0  0  0  0
   70.2388   51.3166   13.3798 C   0  0  1  0  0  0  0  0  0  0  0  0
   71.5000   52.9758   12.7582 C   0  0  0  0  0  0  0  0  0  0  0  0
   69.4612   57.5902   17.4384 C   0  0  0  0  0  0  0  0  0  0  0  0
   72.9493   61.9856   22.1780 C   0  0  0  0  0  0  0  0  0  0  0  0
   72.7357   62.4885   20.9072 C   0  0  0  0  0  0  0  0  0  0  0  0
   72.2804   61.6649   19.8914 C   0  0  0  0  0  0  0  0  0  0  0  0
   72.0197   60.3162   20.0935 C   0  0  0  0  0  0  0  0  0  0  0  0
   72.2478   59.8552   21.3829 C   0  0  0  0  0  0  0  0  0  0  0  0
   72.7008   60.6680   22.3990 C   0  0  0  0  0  0  0  0  0  0  0  0
   73.7589   59.2170   17.6466 C   0  0  0  0  0  0  0  0  0  0  0  0
   72.3721   57.3779   17.1167 C   0  0  0  0  0  0  0  0  0  0  0  0
   70.4235   52.1201   14.6555 C   0  0  1  0  0  0  0  0  0  0  0  0
   71.0028   53.3949   14.1322 C   0  0  0  0  0  0  0  0  0  0  0  0
   68.0580   57.1236   17.6362 C   0  0  0  0  0  0  0  0  0  0  0  0
   67.3639   57.6301   18.7104 C   0  0  0  0  0  0  0  0  0  0  0  0
   66.0743   57.2021   18.8898 C   0  0  0  0  0  0  0  0  0  0  0  0
   65.4757   56.2993   18.0386 C   0  0  0  0  0  0  0  0  0  0  0  0
   66.1778   55.8025   16.9728 C   0  0  0  0  0  0  0  0  0  0  0  0
   67.4765   56.2216   16.7764 C   0  0  0  0  0  0  0  0  0  0  0  0
   73.4710   62.3080   24.5807 C   0  0  0  0  0  0  0  0  0  0  0  0
   76.6614   57.4714   16.0792 C   0  0  0  0  0  0  0  0  0  0  0  0
   75.0155   58.4214   17.5814 C   0  0  2  0  0  0  0  0  0  0  0  0
   75.1572   57.5053   16.4104 C   0  0  0  0  0  0  0  0  0  0  0  0
   75.0202   57.5260   18.8333 C   0  0  0  0  0  0  0  0  0  0  0  0
   73.4379   62.9374   23.2058 C   0  0  2  0  0  0  0  0  0  0  0  0
   72.5510   58.4952   17.8903 N   0  0  0  0  0  0  0  0  0  0  0  0
   69.9399   55.4872   16.4695 N   0  0  0  0  0  0  0  0  0  0  0  0
   70.6824   58.1547   19.6079 O   0  0  0  0  0  0  0  0  0  0  0  0
   70.2972   59.9184   18.0697 O   0  0  0  0  0  0  0  0  0  0  0  0
   72.0049   56.4712   14.9975 O   0  0  0  0  0  0  0  0  0  0  0  0
   69.3543   54.9230   14.3397 O   0  0  0  0  0  0  0  0  0  0  0  0
   68.7740   53.3684   15.9229 O   0  0  0  0  0  0  0  0  0  0  0  0
   69.0703   51.7286   12.8029 O   0  0  0  0  0  0  0  0  0  0  0  0
   71.3865   51.6004   12.6762 O   0  0  0  0  0  0  0  0  0  0  0  0
   72.5270   63.9903   23.2321 O   0  0  0  0  0  0  0  0  0  0  0  0
   73.7942   63.2415   25.5618 O   0  0  0  0  0  0  0  0  0  0  0  0
   71.4434   59.2472   18.8334 S   0  0  1  0  0  6  0  0  0  0  0  0
  1  2  1  0
 16  1  1  0
  1 35  1  6
  2  8  1  1
  2 32  1  0
 32  3  1  0
  3 36  2  0
  3 37  1  0
  4  5  1  0
  4 17  1  0
  4 37  1  1
  5 38  1  0
 17  6  1  0
  6 38  1  6
  6 39  1  0
 18  7  1  0
  7 39  1  0
  8 19  1  0
 10  9  2  0
 14  9  1  0
  9 30  1  0
 11 10  1  0
 12 11  2  0
 12 13  1  0
 42 12  1  0
 13 14  2  0
 15 27  1  0
 31 15  1  0
 31 16  1  0
 17 18  1  6
 19 20  2  0
 19 24  1  0
 20 21  1  0
 21 22  2  0
 23 22  1  0
 24 23  2  0
 30 25  1  0
 25 41  1  0
 28 26  1  0
 27 28  1  0
 27 29  1  1
 30 40  1  1
 42 31  1  6
 42 33  2  0
 42 34  2  0
M  END
$$$$
