
     RDKit          3D

 42 45  0  0  0  0  0  0  0  0999 V2000
   70.6590   57.3958   15.0827 C   0  0  1  0  0  0  0  0  0  0  0  0
   70.7711   57.8506   16.5023 C   0  0  2  0  0  0  0  0  0  0  0  0
   72.4601   58.8155   18.0697 C   0  0  0  0  0  0  0  0  0  0  0  0
   73.9430   59.6491   19.7432 C   0  0  1  0  0  0  0  0  0  0  0  0
   74.7652   60.9074   19.7275 C   0  0  0  0  0  0  0  0  0  0  0  0
   73.1809   61.2245   21.2875 C   0  0  1  0  0  0  0  0  0  0  0  0
   71.7259   62.3473   20.1247 C   0  0  0  0  0  0  0  0  0  0  0  0
   70.1749   59.2660   16.6658 C   0  0  0  0  0  0  0  0  0  0  0  0
   66.6172   50.9520   13.9080 C   0  0  0  0  0  0  0  0  0  0  0  0
   67.5896   50.6088   14.8299 C   0  0  0  0  0  0  0  0  0  0  0  0
   68.2374   51.5859   15.5668 C   0  0  0  0  0  0  0  0  0  0  0  0
   67.9485   52.9361   15.4202 C   0  0  0  0  0  0  0  0  0  0  0  0
   66.9669   53.2340   14.4849 C   0  0  0  0  0  0  0  0  0  0  0  0
   66.3179   52.2678   13.7478 C   0  0  0  0  0  0  0  0  0  0  0  0
   71.2656   54.7380   15.9694 C   0  0  0  0  0  0  0  0  0  0  0  0
   69.7854   56.2039   14.8528 C   0  0  0  0  0  0  0  0  0  0  0  0
   72.6274   60.1932   20.3194 C   0  0  1  0  0  0  0  0  0  0  0  0
   71.8929   61.0544   19.3430 C   0  0  0  0  0  0  0  0  0  0  0  0
   69.6496   59.4224   18.0534 C   0  0  0  0  0  0  0  0  0  0  0  0
   69.7529   60.6635   18.6374 C   0  0  0  0  0  0  0  0  0  0  0  0
   69.2682   60.8063   19.9114 C   0  0  0  0  0  0  0  0  0  0  0  0
   68.6949   59.7596   20.5999 C   0  0  0  0  0  0  0  0  0  0  0  0
   68.5981   58.5289   20.0070 C   0  0  0  0  0  0  0  0  0  0  0  0
   69.0805   58.3664   18.7258 C   0  0  0  0  0  0  0  0  0  0  0  0
   66.2727   49.9167   11.6812 C   0  0  0  0  0  0  0  0  0  0  0  0
   72.9560   52.5353   14.3137 C   0  0  0  0  0  0  0  0  0  0  0  0
   72.2942   54.7919   14.8945 C   0  0  2  0  0  0  0  0  0  0  0  0
   72.1758   53.7666   13.8150 C   0  0  0  0  0  0  0  0  0  0  0  0
   73.6469   54.5391   15.5839 C   0  0  0  0  0  0  0  0  0  0  0  0
   65.9744   49.8423   13.1621 C   0  0  2  0  0  0  0  0  0  0  0  0
   69.9254   55.0606   15.5958 N   0  0  0  0  0  0  0  0  0  0  0  0
   72.0956   57.9365   17.0309 N   0  0  0  0  0  0  0  0  0  0  0  0
   67.6054   55.1738   16.6737 O   0  0  0  0  0  0  0  0  0  0  0  0
   69.1096   53.6740   17.7287 O   0  0  0  0  0  0  0  0  0  0  0  0
   70.0438   58.4765   14.3877 O   0  0  0  0  0  0  0  0  0  0  0  0
   71.4954   59.4285   18.6468 O   0  0  0  0  0  0  0  0  0  0  0  0
   73.7533   59.0550   18.4967 O   0  0  0  0  0  0  0  0  0  0  0  0
   74.3186   61.7382   20.7310 O   0  0  0  0  0  0  0  0  0  0  0  0
   72.1314   62.1036   21.4237 O   0  0  0  0  0  0  0  0  0  0  0  0
   64.6013   49.9939   13.3366 O   0  0  0  0  0  0  0  0  0  0  0  0
   65.6999   48.8518   10.9910 O   0  0  0  0  0  0  0  0  0  0  0  0
   68.7468   54.1966   16.3348 S   0  0  1  0  0  6  0  0  0  0  0  0
  1  2  1  0
 16  1  1  0
  1 35  1  6
  2  8  1  6
  2 32  1  0
 32  3  1  0
  3 36  2  0
  3 37  1  0
  4  5  1  0
  4 17  1  0
  4 37  1  6
  5 38  1  0
 17  6  1  0
  6 38  1  6
  6 39  1  0
 18  7  1  0
  7 39  1  0
  8 19  1  0
 10  9  2  0
 14  9  1  0
  9 30  1  0
 11 10  1  0
 12 11  2  0
 12 13  1  0
 42 12  1  0
 13 14  2  0
 15 27  1  0
 31 15  1  0
 31 16  1  0
 17 18  1  6
 19 20  2  0
 19 24  1  0
 20 21  1  0
 21 22  2  0
 23 22  1  0
 24 23  2  0
 30 25  1  0
 25 41  1  0
 28 26  1  0
 27 28  1  0
 27 29  1  1
 30 40  1  6
 42 31  1  6
 42 33  2  0
 42 34  2  0
M  END
$$$$
