
     RDKit          3D

 42 45  0  0  0  0  0  0  0  0999 V2000
   71.2540   56.9029   15.5743 C   0  0  1  0  0  0  0  0  0  0  0  0
   70.8578   57.5078   16.8826 C   0  0  2  0  0  0  0  0  0  0  0  0
   72.9178   57.9307   18.2307 C   0  0  0  0  0  0  0  0  0  0  0  0
   74.1038   59.2838   19.7984 C   0  0  1  0  0  0  0  0  0  0  0  0
   74.7084   59.9114   18.5736 C   0  0  0  0  0  0  0  0  0  0  0  0
   74.4491   61.5775   20.0572 C   0  0  1  0  0  0  0  0  0  0  0  0
   72.5644   62.4114   19.3624 C   0  0  0  0  0  0  0  0  0  0  0  0
   69.5749   58.3529   16.7216 C   0  0  0  0  0  0  0  0  0  0  0  0
   66.7153   50.6505   13.5630 C   0  0  0  0  0  0  0  0  0  0  0  0
   66.4409   52.0036   13.4783 C   0  0  0  0  0  0  0  0  0  0  0  0
   67.2287   52.9251   14.1475 C   0  0  0  0  0  0  0  0  0  0  0  0
   68.3150   52.5440   14.9238 C   0  0  0  0  0  0  0  0  0  0  0  0
   68.5530   51.1775   14.9800 C   0  0  0  0  0  0  0  0  0  0  0  0
   67.7740   50.2545   14.3172 C   0  0  0  0  0  0  0  0  0  0  0  0
   71.3963   54.1407   14.2667 C   0  0  0  0  0  0  0  0  0  0  0  0
   70.2035   56.0812   14.8975 C   0  0  0  0  0  0  0  0  0  0  0  0
   73.4312   60.5127   20.4276 C   0  0  1  0  0  0  0  0  0  0  0  0
   72.2293   60.9585   19.6586 C   0  0  0  0  0  0  0  0  0  0  0  0
   69.1014   58.7913   18.0668 C   0  0  0  0  0  0  0  0  0  0  0  0
   69.0643   60.1430   18.3195 C   0  0  0  0  0  0  0  0  0  0  0  0
   68.6273   60.5445   19.5549 C   0  0  0  0  0  0  0  0  0  0  0  0
   68.2349   59.6454   20.5223 C   0  0  0  0  0  0  0  0  0  0  0  0
   68.2767   58.3022   20.2579 C   0  0  0  0  0  0  0  0  0  0  0  0
   68.7137   57.8797   19.0205 C   0  0  0  0  0  0  0  0  0  0  0  0
   64.5253   49.4873   13.5558 C   0  0  0  0  0  0  0  0  0  0  0  0
   74.5219   52.9497   14.0106 C   0  0  0  0  0  0  0  0  0  0  0  0
   72.5774   53.8636   15.1295 C   0  0  2  0  0  0  0  0  0  0  0  0
   73.2980   52.5812   14.8708 C   0  0  0  0  0  0  0  0  0  0  0  0
   72.0434   53.7758   16.5704 C   0  0  0  0  0  0  0  0  0  0  0  0
   65.8206   49.7336   12.8148 C   0  0  2  0  0  0  0  0  0  0  0  0
   70.2526   54.7115   14.9038 N   0  0  0  0  0  0  0  0  0  0  0  0
   71.8128   58.3839   17.4837 N   0  0  0  0  0  0  0  0  0  0  0  0
   68.3259   54.5315   16.5809 O   0  0  0  0  0  0  0  0  0  0  0  0
   70.0718   52.9611   16.9140 O   0  0  0  0  0  0  0  0  0  0  0  0
   71.5101   58.0062   14.7104 O   0  0  0  0  0  0  0  0  0  0  0  0
   73.7224   57.1458   17.6175 O   0  0  0  0  0  0  0  0  0  0  0  0
   73.1853   58.2663   19.5453 O   0  0  0  0  0  0  0  0  0  0  0  0
   74.9744   61.2355   18.8427 O   0  0  0  0  0  0  0  0  0  0  0  0
   73.7005   62.7315   20.0821 O   0  0  0  0  0  0  0  0  0  0  0  0
   66.4979   48.5214   12.7096 O   0  0  0  0  0  0  0  0  0  0  0  0
   63.4824   50.2422   13.0256 O   0  0  0  0  0  0  0  0  0  0  0  0
   69.3315   53.6810   15.7821 S   0  0  1  0  0  6  0  0  0  0  0  0
  1  2  1  0
 16  1  1  0
  1 35  1  6
  2  8  1  6
  2 32  1  0
 32  3  1  0
  3 36  2  0
  3 37  1  0
  4  5  1  0
  4 17  1  0
  4 37  1  6
  5 38  1  0
 17  6  1  0
  6 38  1  6
  6 39  1  0
 18  7  1  0
  7 39  1  0
  8 19  1  0
 10  9  2  0
 14  9  1  0
  9 30  1  0
 11 10  1  0
 12 11  2  0
 12 13  1  0
 42 12  1  0
 13 14  2  0
 15 27  1  0
 31 15  1  0
 31 16  1  0
 17 18  1  6
 19 20  2  0
 19 24  1  0
 20 21  1  0
 21 22  2  0
 23 22  1  0
 24 23  2  0
 30 25  1  0
 25 41  1  0
 28 26  1  0
 27 28  1  0
 27 29  1  1
 30 40  1  1
 42 31  1  6
 42 33  2  0
 42 34  2  0
M  END
$$$$
