
     RDKit          3D

 42 45  0  0  0  0  0  0  0  0999 V2000
   70.8074   57.2524   15.4910 C   0  0  1  0  0  0  0  0  0  0  0  0
   70.4860   57.9594   16.7682 C   0  0  2  0  0  0  0  0  0  0  0  0
   72.4346   59.3428   17.4957 C   0  0  0  0  0  0  0  0  0  0  0  0
   73.9023   59.3186   19.3772 C   0  0  1  0  0  0  0  0  0  0  0  0
   74.8931   60.1196   18.5795 C   0  0  0  0  0  0  0  0  0  0  0  0
   74.5832   61.2512   20.4946 C   0  0  1  0  0  0  0  0  0  0  0  0
   73.1107   62.7103   19.8367 C   0  0  0  0  0  0  0  0  0  0  0  0
   68.9737   58.2625   16.8532 C   0  0  0  0  0  0  0  0  0  0  0  0
   66.8276   50.9453   13.8754 C   0  0  0  0  0  0  0  0  0  0  0  0
   66.7526   52.2581   13.4461 C   0  0  0  0  0  0  0  0  0  0  0  0
   67.4769   53.2503   14.0851 C   0  0  0  0  0  0  0  0  0  0  0  0
   68.3006   52.9823   15.1703 C   0  0  0  0  0  0  0  0  0  0  0  0
   68.3452   51.6526   15.5663 C   0  0  0  0  0  0  0  0  0  0  0  0
   67.6278   50.6596   14.9359 C   0  0  0  0  0  0  0  0  0  0  0  0
   71.2094   53.8889   14.3429 C   0  0  0  0  0  0  0  0  0  0  0  0
   71.3384   55.8620   15.6378 C   0  0  0  0  0  0  0  0  0  0  0  0
   73.3298   60.4200   20.2814 C   0  0  1  0  0  0  0  0  0  0  0  0
   72.4555   61.3730   19.5318 C   0  0  0  0  0  0  0  0  0  0  0  0
   68.6584   58.8240   18.1990 C   0  0  0  0  0  0  0  0  0  0  0  0
   68.5463   57.9405   19.2473 C   0  0  0  0  0  0  0  0  0  0  0  0
   68.2585   58.4578   20.4835 C   0  0  0  0  0  0  0  0  0  0  0  0
   68.0843   59.8086   20.6911 C   0  0  0  0  0  0  0  0  0  0  0  0
   68.1986   60.6776   19.6388 C   0  0  0  0  0  0  0  0  0  0  0  0
   68.4876   60.1753   18.3879 C   0  0  0  0  0  0  0  0  0  0  0  0
   66.8445   49.2137   12.1004 C   0  0  0  0  0  0  0  0  0  0  0  0
   74.8390   52.8352   13.8246 C   0  0  0  0  0  0  0  0  0  0  0  0
   72.6972   53.8385   14.3483 C   0  0  2  0  0  0  0  0  0  0  0  0
   73.3232   52.7276   13.5707 C   0  0  0  0  0  0  0  0  0  0  0  0
   73.1126   53.6264   15.8151 C   0  0  0  0  0  0  0  0  0  0  0  0
   66.0187   49.9468   13.1340 C   0  0  2  0  0  0  0  0  0  0  0  0
   70.5909   54.7696   15.2818 N   0  0  0  0  0  0  0  0  0  0  0  0
   71.1339   59.2167   16.9697 N   0  0  0  0  0  0  0  0  0  0  0  0
   68.2487   55.3937   16.1076 O   0  0  0  0  0  0  0  0  0  0  0  0
   69.3912   53.8290   17.4757 O   0  0  0  0  0  0  0  0  0  0  0  0
   69.5654   57.1304   14.8041 O   0  0  0  0  0  0  0  0  0  0  0  0
   73.2225   60.1231   16.8555 O   0  0  0  0  0  0  0  0  0  0  0  0
   72.9056   58.6989   18.6251 O   0  0  0  0  0  0  0  0  0  0  0  0
   75.3202   61.1812   19.3458 O   0  0  0  0  0  0  0  0  0  0  0  0
   74.0735   62.4909   20.8043 O   0  0  0  0  0  0  0  0  0  0  0  0
   65.0250   50.6606   12.4690 O   0  0  0  0  0  0  0  0  0  0  0  0
   66.0499   48.7174   11.0705 O   0  0  0  0  0  0  0  0  0  0  0  0
   69.2297   54.2110   16.0007 S   0  0  1  0  0  6  0  0  0  0  0  0
  1  2  1  0
 16  1  1  0
  1 35  1  6
  2  8  1  6
  2 32  1  0
 32  3  1  0
  3 36  2  0
  3 37  1  0
  4  5  1  0
  4 17  1  0
  4 37  1  6
  5 38  1  0
 17  6  1  0
  6 38  1  6
  6 39  1  0
 18  7  1  0
  7 39  1  0
  8 19  1  0
 10  9  2  0
 14  9  1  0
  9 30  1  0
 11 10  1  0
 12 11  2  0
 12 13  1  0
 42 12  1  0
 13 14  2  0
 15 27  1  0
 31 15  1  0
 31 16  1  0
 17 18  1  6
 19 20  2  0
 19 24  1  0
 20 21  1  0
 21 22  2  0
 23 22  1  0
 24 23  2  0
 30 25  1  0
 25 41  1  0
 28 26  1  0
 27 28  1  0
 27 29  1  1
 30 40  1  6
 42 31  1  6
 42 33  2  0
 42 34  2  0
M  END
$$$$
