
     RDKit          3D

 42 45  0  0  0  0  0  0  0  0999 V2000
   70.4522   57.1792   15.0287 C   0  0  1  0  0  0  0  0  0  0  0  0
   70.4987   57.5578   16.4741 C   0  0  2  0  0  0  0  0  0  0  0  0
   71.9817   57.4579   18.4819 C   0  0  0  0  0  0  0  0  0  0  0  0
   73.3548   59.1270   19.4937 C   0  0  1  0  0  0  0  0  0  0  0  0
   73.9709   59.6685   18.2341 C   0  0  0  0  0  0  0  0  0  0  0  0
   74.5562   61.0923   19.8694 C   0  0  1  0  0  0  0  0  0  0  0  0
   73.0362   62.6240   19.5980 C   0  0  0  0  0  0  0  0  0  0  0  0
   69.9824   59.0000   16.6727 C   0  0  0  0  0  0  0  0  0  0  0  0
   71.9433   49.7698   14.1068 C   0  0  0  0  0  0  0  0  0  0  0  0
   70.8111   50.0893   14.8343 C   0  0  0  0  0  0  0  0  0  0  0  0
   70.5918   51.3881   15.2613 C   0  0  0  0  0  0  0  0  0  0  0  0
   71.4818   52.4175   14.9856 C   0  0  0  0  0  0  0  0  0  0  0  0
   72.6031   52.0514   14.2535 C   0  0  0  0  0  0  0  0  0  0  0  0
   72.8285   50.7615   13.8251 C   0  0  0  0  0  0  0  0  0  0  0  0
   68.6562   53.9060   15.2113 C   0  0  0  0  0  0  0  0  0  0  0  0
   69.5614   56.0264   14.6908 C   0  0  0  0  0  0  0  0  0  0  0  0
   73.2794   60.4118   20.3316 C   0  0  1  0  0  0  0  0  0  0  0  0
   72.2327   61.3550   19.8321 C   0  0  0  0  0  0  0  0  0  0  0  0
   69.2719   59.0934   17.9812 C   0  0  0  0  0  0  0  0  0  0  0  0
   69.1956   57.9534   18.7473 C   0  0  0  0  0  0  0  0  0  0  0  0
   68.5443   58.0411   19.9500 C   0  0  0  0  0  0  0  0  0  0  0  0
   67.9801   59.2165   20.3949 C   0  0  0  0  0  0  0  0  0  0  0  0
   68.0630   60.3445   19.6225 C   0  0  0  0  0  0  0  0  0  0  0  0
   68.7143   60.2752   18.4094 C   0  0  0  0  0  0  0  0  0  0  0  0
   71.7068   47.3991   14.7950 C   0  0  0  0  0  0  0  0  0  0  0  0
   66.6700   52.2629   15.3797 C   0  0  0  0  0  0  0  0  0  0  0  0
   67.8381   53.8483   13.9689 C   0  0  2  0  0  0  0  0  0  0  0  0
   66.6220   52.9827   14.0184 C   0  0  0  0  0  0  0  0  0  0  0  0
   68.7504   53.2495   12.8835 C   0  0  0  0  0  0  0  0  0  0  0  0
   72.0991   48.3545   13.6899 C   0  0  2  0  0  0  0  0  0  0  0  0
   69.7909   54.7731   15.1961 N   0  0  0  0  0  0  0  0  0  0  0  0
   71.7882   57.5315   17.0885 N   0  0  0  0  0  0  0  0  0  0  0  0
   71.3852   53.9881   17.0399 O   0  0  0  0  0  0  0  0  0  0  0  0
   72.4580   54.9166   15.1392 O   0  0  0  0  0  0  0  0  0  0  0  0
   69.9044   58.3112   14.3595 O   0  0  0  0  0  0  0  0  0  0  0  0
   72.0498   56.2781   18.9747 O   0  0  0  0  0  0  0  0  0  0  0  0
   72.0995   58.5433   19.3305 O   0  0  0  0  0  0  0  0  0  0  0  0
   74.7425   60.7628   18.5561 O   0  0  0  0  0  0  0  0  0  0  0  0
   74.2989   62.4198   20.1228 O   0  0  0  0  0  0  0  0  0  0  0  0
   73.4522   48.1709   13.4174 O   0  0  0  0  0  0  0  0  0  0  0  0
   71.8916   46.0731   14.4128 O   0  0  0  0  0  0  0  0  0  0  0  0
   71.2360   54.0693   15.5089 S   0  0  1  0  0  6  0  0  0  0  0  0
  1  2  1  0
 16  1  1  0
  1 35  1  6
  2  8  1  6
  2 32  1  0
 32  3  1  0
  3 36  2  0
  3 37  1  0
  4  5  1  0
  4 17  1  0
  4 37  1  6
  5 38  1  0
 17  6  1  0
  6 38  1  6
  6 39  1  0
 18  7  1  0
  7 39  1  0
  8 19  1  0
 10  9  2  0
 14  9  1  0
  9 30  1  0
 11 10  1  0
 12 11  2  0
 12 13  1  0
 42 12  1  0
 13 14  2  0
 15 27  1  0
 31 15  1  0
 31 16  1  0
 17 18  1  6
 19 20  2  0
 19 24  1  0
 20 21  1  0
 21 22  2  0
 23 22  1  0
 24 23  2  0
 30 25  1  0
 25 41  1  0
 28 26  1  0
 27 28  1  0
 27 29  1  6
 30 40  1  1
 42 31  1  1
 42 33  2  0
 42 34  2  0
M  END
$$$$
