
     RDKit          3D

 42 45  0  0  0  0  0  0  0  0999 V2000
   71.0231   55.8099   15.7711 C   0  0  1  0  0  0  0  0  0  0  0  0
   72.3354   56.4844   16.0114 C   0  0  2  0  0  0  0  0  0  0  0  0
   73.5911   57.9602   17.5878 C   0  0  0  0  0  0  0  0  0  0  0  0
   74.5162   59.2438   19.3743 C   0  0  1  0  0  0  0  0  0  0  0  0
   75.1762   60.1898   18.4105 C   0  0  0  0  0  0  0  0  0  0  0  0
   73.8681   61.4586   19.7233 C   0  0  1  0  0  0  0  0  0  0  0  0
   72.1133   61.6342   18.4506 C   0  0  0  0  0  0  0  0  0  0  0  0
   73.4818   55.4492   16.0228 C   0  0  0  0  0  0  0  0  0  0  0  0
   66.8261   51.6218   14.3616 C   0  0  0  0  0  0  0  0  0  0  0  0
   66.0684   52.6808   14.8283 C   0  0  0  0  0  0  0  0  0  0  0  0
   66.5974   53.5762   15.7424 C   0  0  0  0  0  0  0  0  0  0  0  0
   67.8927   53.4584   16.2284 C   0  0  0  0  0  0  0  0  0  0  0  0
   68.6160   52.3821   15.7331 C   0  0  0  0  0  0  0  0  0  0  0  0
   68.0969   51.4868   14.8236 C   0  0  0  0  0  0  0  0  0  0  0  0
   67.7435   57.0226   17.1787 C   0  0  0  0  0  0  0  0  0  0  0  0
   69.8101   56.6185   16.1052 C   0  0  0  0  0  0  0  0  0  0  0  0
   73.2710   60.0621   19.7464 C   0  0  1  0  0  0  0  0  0  0  0  0
   72.2831   60.1340   18.6268 C   0  0  0  0  0  0  0  0  0  0  0  0
   74.7785   56.1523   16.2466 C   0  0  0  0  0  0  0  0  0  0  0  0
   75.1638   57.0892   15.3161 C   0  0  0  0  0  0  0  0  0  0  0  0
   76.3543   57.7357   15.5239 C   0  0  0  0  0  0  0  0  0  0  0  0
   77.1510   57.4729   16.6167 C   0  0  0  0  0  0  0  0  0  0  0  0
   76.7558   56.5376   17.5358 C   0  0  0  0  0  0  0  0  0  0  0  0
   75.5611   55.8771   17.3433 C   0  0  0  0  0  0  0  0  0  0  0  0
   66.1541   51.3084   11.9953 C   0  0  0  0  0  0  0  0  0  0  0  0
   65.8456   58.7214   17.8404 C   0  0  0  0  0  0  0  0  0  0  0  0
   67.5935   58.1791   16.2534 C   0  0  2  0  0  0  0  0  0  0  0  0
   66.7510   59.3112   16.7423 C   0  0  0  0  0  0  0  0  0  0  0  0
   66.8948   57.6326   14.9955 C   0  0  0  0  0  0  0  0  0  0  0  0
   66.1809   50.7108   13.3845 C   0  0  2  0  0  0  0  0  0  0  0  0
   68.8234   56.1249   16.9186 N   0  0  0  0  0  0  0  0  0  0  0  0
   72.4586   57.1964   17.2438 N   0  0  0  0  0  0  0  0  0  0  0  0
   67.5721   54.5840   18.5364 O   0  0  0  0  0  0  0  0  0  0  0  0
   69.7993   53.9182   18.0656 O   0  0  0  0  0  0  0  0  0  0  0  0
   70.9692   55.5787   14.3665 O   0  0  0  0  0  0  0  0  0  0  0  0
   74.0985   58.6624   16.6449 O   0  0  0  0  0  0  0  0  0  0  0  0
   74.1764   58.0020   18.8400 O   0  0  0  0  0  0  0  0  0  0  0  0
   74.8242   61.4781   18.7468 O   0  0  0  0  0  0  0  0  0  0  0  0
   72.7675   62.2532   19.4995 O   0  0  0  0  0  0  0  0  0  0  0  0
   64.8659   50.5436   13.8107 O   0  0  0  0  0  0  0  0  0  0  0  0
   65.6239   50.4171   11.0663 O   0  0  0  0  0  0  0  0  0  0  0  0
   68.5930   54.5715   17.3831 S   0  0  1  0  0  6  0  0  0  0  0  0
  1  2  1  0
 16  1  1  0
  1 35  1  6
  2  8  1  1
  2 32  1  0
 32  3  1  0
  3 36  2  0
  3 37  1  0
  4  5  1  0
  4 17  1  0
  4 37  1  6
  5 38  1  0
 17  6  1  0
  6 38  1  6
  6 39  1  0
 18  7  1  0
  7 39  1  0
  8 19  1  0
 10  9  2  0
 14  9  1  0
  9 30  1  0
 11 10  1  0
 12 11  2  0
 12 13  1  0
 42 12  1  0
 13 14  2  0
 15 27  1  0
 31 15  1  0
 31 16  1  0
 17 18  1  6
 19 20  2  0
 19 24  1  0
 20 21  1  0
 21 22  2  0
 23 22  1  0
 24 23  2  0
 30 25  1  0
 25 41  1  0
 28 26  1  0
 27 28  1  0
 27 29  1  6
 30 40  1  1
 42 31  1  6
 42 33  2  0
 42 34  2  0
M  END
$$$$
