
     RDKit          3D

 42 45  0  0  0  0  0  0  0  0999 V2000
   71.5843   56.7621   15.5805 C   0  0  1  0  0  0  0  0  0  0  0  0
   71.4422   55.3616   15.0778 C   0  0  2  0  0  0  0  0  0  0  0  0
   69.2197   54.2267   15.1927 C   0  0  0  0  0  0  0  0  0  0  0  0
   67.3692   53.0543   14.2461 C   0  0  1  0  0  0  0  0  0  0  0  0
   66.9596   53.2800   12.8175 C   0  0  0  0  0  0  0  0  0  0  0  0
   67.8454   51.2173   12.8875 C   0  0  1  0  0  0  0  0  0  0  0  0
   69.8667   51.6517   12.2123 C   0  0  0  0  0  0  0  0  0  0  0  0
   72.4654   55.0832   13.9547 C   0  0  0  0  0  0  0  0  0  0  0  0
   74.2141   60.9953   21.0598 C   0  0  0  0  0  0  0  0  0  0  0  0
   74.9707   60.1707   20.2468 C   0  0  0  0  0  0  0  0  0  0  0  0
   74.3798   59.1217   19.5629 C   0  0  0  0  0  0  0  0  0  0  0  0
   73.0215   58.8492   19.6569 C   0  0  0  0  0  0  0  0  0  0  0  0
   72.3019   59.7016   20.4831 C   0  0  0  0  0  0  0  0  0  0  0  0
   72.8823   60.7474   21.1669 C   0  0  0  0  0  0  0  0  0  0  0  0
   70.1812   58.9657   18.1206 C   0  0  0  0  0  0  0  0  0  0  0  0
   70.6352   57.1587   16.6662 C   0  0  0  0  0  0  0  0  0  0  0  0
   68.4520   51.9829   14.0507 C   0  0  1  0  0  0  0  0  0  0  0  0
   69.6960   52.5382   13.4352 C   0  0  0  0  0  0  0  0  0  0  0  0
   73.0022   53.6997   14.1087 C   0  0  0  0  0  0  0  0  0  0  0  0
   73.8700   53.2423   13.1445 C   0  0  0  0  0  0  0  0  0  0  0  0
   74.3638   51.9719   13.2881 C   0  0  0  0  0  0  0  0  0  0  0  0
   74.0178   51.1660   14.3506 C   0  0  0  0  0  0  0  0  0  0  0  0
   73.1527   51.6335   15.3039 C   0  0  0  0  0  0  0  0  0  0  0  0
   72.6456   52.9090   15.1759 C   0  0  0  0  0  0  0  0  0  0  0  0
   75.8262   62.8632   20.8124 C   0  0  0  0  0  0  0  0  0  0  0  0
   68.2775   60.2690   19.7976 C   0  0  0  0  0  0  0  0  0  0  0  0
   68.7187   58.7219   17.9866 C   0  0  2  0  0  0  0  0  0  0  0  0
   67.8220   59.8469   18.3877 C   0  0  0  0  0  0  0  0  0  0  0  0
   68.3919   57.5514   18.9313 C   0  0  0  0  0  0  0  0  0  0  0  0
   74.9277   62.0943   21.7554 C   0  0  2  0  0  0  0  0  0  0  0  0
   71.0499   57.8963   17.7445 N   0  0  0  0  0  0  0  0  0  0  0  0
   70.1710   55.0203   14.5221 N   0  0  0  0  0  0  0  0  0  0  0  0
   73.3907   56.8913   18.0056 O   0  0  0  0  0  0  0  0  0  0  0  0
   71.9063   56.4080   19.7911 O   0  0  0  0  0  0  0  0  0  0  0  0
   72.8877   56.8276   16.1518 O   0  0  0  0  0  0  0  0  0  0  0  0
   69.6705   53.5006   16.1460 O   0  0  0  0  0  0  0  0  0  0  0  0
   67.8692   54.1796   14.8993 O   0  0  0  0  0  0  0  0  0  0  0  0
   67.1777   52.1199   12.1081 O   0  0  0  0  0  0  0  0  0  0  0  0
   68.9451   50.6258   12.3100 O   0  0  0  0  0  0  0  0  0  0  0  0
   75.7276   61.4935   22.7240 O   0  0  0  0  0  0  0  0  0  0  0  0
   76.4028   63.9639   21.4406 O   0  0  0  0  0  0  0  0  0  0  0  0
   72.2421   57.5330   18.8067 S   0  0  1  0  0  6  0  0  0  0  0  0
  1  2  1  0
 16  1  1  0
  1 35  1  1
  2  8  1  6
  2 32  1  0
 32  3  1  0
  3 36  2  0
  3 37  1  0
  4  5  1  0
  4 17  1  0
  4 37  1  6
  5 38  1  0
 17  6  1  0
  6 38  1  6
  6 39  1  0
 18  7  1  0
  7 39  1  0
  8 19  1  0
 10  9  2  0
 14  9  1  0
  9 30  1  0
 11 10  1  0
 12 11  2  0
 12 13  1  0
 42 12  1  0
 13 14  2  0
 15 27  1  0
 31 15  1  0
 31 16  1  0
 17 18  1  6
 19 20  2  0
 19 24  1  0
 20 21  1  0
 21 22  2  0
 23 22  1  0
 24 23  2  0
 30 25  1  0
 25 41  1  0
 28 26  1  0
 27 28  1  0
 27 29  1  1
 30 40  1  1
 42 31  1  6
 42 33  2  0
 42 34  2  0
M  END
$$$$
