
     RDKit          3D

 42 45  0  0  0  0  0  0  0  0999 V2000
   71.2913   56.8847   15.2814 C   0  0  1  0  0  0  0  0  0  0  0  0
   70.8486   57.3717   16.6236 C   0  0  2  0  0  0  0  0  0  0  0  0
   72.6343   58.1314   18.1967 C   0  0  0  0  0  0  0  0  0  0  0  0
   74.4257   59.3765   19.1639 C   0  0  1  0  0  0  0  0  0  0  0  0
   75.1438   60.6132   18.7010 C   0  0  0  0  0  0  0  0  0  0  0  0
   74.0090   61.2115   20.5445 C   0  0  1  0  0  0  0  0  0  0  0  0
   72.2398   62.0866   19.6310 C   0  0  0  0  0  0  0  0  0  0  0  0
   69.4283   57.9728   16.5398 C   0  0  0  0  0  0  0  0  0  0  0  0
   66.6547   50.7592   13.7598 C   0  0  0  0  0  0  0  0  0  0  0  0
   67.6880   50.4142   14.6123 C   0  0  0  0  0  0  0  0  0  0  0  0
   68.3829   51.3896   15.3072 C   0  0  0  0  0  0  0  0  0  0  0  0
   68.0829   52.7399   15.1857 C   0  0  0  0  0  0  0  0  0  0  0  0
   67.0398   53.0396   14.3202 C   0  0  0  0  0  0  0  0  0  0  0  0
   66.3435   52.0751   13.6252 C   0  0  0  0  0  0  0  0  0  0  0  0
   71.5283   53.9274   15.7924 C   0  0  0  0  0  0  0  0  0  0  0  0
   70.4949   55.7559   14.7084 C   0  0  0  0  0  0  0  0  0  0  0  0
   73.2791   60.0129   19.9632 C   0  0  1  0  0  0  0  0  0  0  0  0
   72.2676   60.6701   19.0803 C   0  0  0  0  0  0  0  0  0  0  0  0
   69.0299   58.4854   17.8831 C   0  0  0  0  0  0  0  0  0  0  0  0
   68.6345   57.5639   18.8247 C   0  0  0  0  0  0  0  0  0  0  0  0
   68.2706   58.0359   20.0589 C   0  0  0  0  0  0  0  0  0  0  0  0
   68.2927   59.3786   20.3667 C   0  0  0  0  0  0  0  0  0  0  0  0
   68.6884   60.2858   19.4200 C   0  0  0  0  0  0  0  0  0  0  0  0
   69.0579   59.8294   18.1727 C   0  0  0  0  0  0  0  0  0  0  0  0
   66.3381   49.6006   11.5903 C   0  0  0  0  0  0  0  0  0  0  0  0
   73.0065   51.7336   14.2666 C   0  0  0  0  0  0  0  0  0  0  0  0
   72.6964   54.0568   14.8787 C   0  0  2  0  0  0  0  0  0  0  0  0
   73.6945   52.9466   14.9214 C   0  0  0  0  0  0  0  0  0  0  0  0
   73.4449   55.3276   15.3188 C   0  0  0  0  0  0  0  0  0  0  0  0
   65.9644   49.6512   13.0551 C   0  0  2  0  0  0  0  0  0  0  0  0
   70.3228   54.5816   15.3941 N   0  0  0  0  0  0  0  0  0  0  0  0
   71.6543   58.3905   17.2185 N   0  0  0  0  0  0  0  0  0  0  0  0
   67.9276   55.1586   16.0922 O   0  0  0  0  0  0  0  0  0  0  0  0
   69.0340   53.6350   17.5342 O   0  0  0  0  0  0  0  0  0  0  0  0
   71.1046   57.9876   14.3993 O   0  0  0  0  0  0  0  0  0  0  0  0
   72.2478   57.4451   19.2062 O   0  0  0  0  0  0  0  0  0  0  0  0
   73.9491   58.5563   18.1426 O   0  0  0  0  0  0  0  0  0  0  0  0
   74.9305   61.6165   19.6200 O   0  0  0  0  0  0  0  0  0  0  0  0
   72.9847   62.0951   20.7957 O   0  0  0  0  0  0  0  0  0  0  0  0
   64.6003   49.9158   13.1462 O   0  0  0  0  0  0  0  0  0  0  0  0
   65.5970   48.6400   10.9073 O   0  0  0  0  0  0  0  0  0  0  0  0
   68.9398   53.9983   16.0487 S   0  0  1  0  0  6  0  0  0  0  0  0
  1  2  1  0
 16  1  1  0
  1 35  1  6
  2  8  1  6
  2 32  1  0
 32  3  1  0
  3 36  2  0
  3 37  1  0
  4  5  1  0
  4 17  1  0
  4 37  1  6
  5 38  1  0
 17  6  1  0
  6 38  1  6
  6 39  1  0
 18  7  1  0
  7 39  1  0
  8 19  1  0
 10  9  2  0
 14  9  1  0
  9 30  1  0
 11 10  1  0
 12 11  2  0
 12 13  1  0
 42 12  1  0
 13 14  2  0
 15 27  1  0
 31 15  1  0
 31 16  1  0
 17 18  1  6
 19 20  2  0
 19 24  1  0
 20 21  1  0
 21 22  2  0
 23 22  1  0
 24 23  2  0
 30 25  1  0
 25 41  1  0
 28 26  1  0
 27 28  1  0
 27 29  1  1
 30 40  1  6
 42 31  1  6
 42 33  2  0
 42 34  2  0
M  END
$$$$
