
     RDKit          3D

 29 31  0  0  0  0  0  0  0  0999 V2000
   22.1200  -47.7923   27.7480 C   0  0  0  0  0  0  0  0  0  0  0  0
   24.1132  -44.6377   32.6514 C   0  0  0  0  0  0  0  0  0  0  0  0
   23.0878  -46.6782   25.1599 C   0  0  0  0  0  0  0  0  0  0  0  0
   22.2228  -47.8379   24.7977 C   0  0  2  0  0  0  0  0  0  0  0  0
   22.7628  -48.9614   25.6465 C   0  0  2  0  0  0  0  0  0  0  0  0
   24.0619  -46.9349   33.0755 C   0  0  0  0  0  0  0  0  0  0  0  0
   23.8704  -45.9034   32.1858 C   0  0  0  0  0  0  0  0  0  0  0  0
   23.4293  -46.1354   30.8101 C   0  0  0  0  0  0  0  0  0  0  0  0
   22.9100  -47.3573   30.1883 C   0  0  0  0  0  0  0  0  0  0  0  0
   24.5347  -44.3934   33.9635 C   0  0  0  0  0  0  0  0  0  0  0  0
   24.7298  -45.4183   34.8594 C   0  0  0  0  0  0  0  0  0  0  0  0
   24.4757  -46.7155   34.3664 C   0  0  0  0  0  0  0  0  0  0  0  0
   26.3284  -45.5954   36.7551 C   0  0  0  0  0  0  0  0  0  0  0  0
   26.1759  -46.5824   37.8766 C   0  0  0  0  0  0  0  0  0  0  0  0
   26.4468  -48.7706   38.4411 C   0  0  0  0  0  0  0  0  0  0  0  0
   27.6825  -49.5260   38.0795 C   0  0  0  0  0  0  0  0  0  0  0  0
   23.2674  -48.2324   26.8680 C   0  0  1  0  0  0  0  0  0  0  0  0
   23.8772  -47.0351   26.3224 N   0  0  0  0  0  4  0  0  0  0  0  0
   22.6510  -46.9648   28.8262 N   0  0  0  0  0  4  0  0  0  0  0  0
   22.9666  -45.7476   28.7081 N   0  0  0  0  0  0  0  0  0  0  0  0
   23.4397  -45.2220   29.8919 N   0  0  0  0  0  0  0  0  0  0  0  0
   28.8502  -48.7169   38.4564 N   0  0  0  0  0  0  0  0  0  0  0  0
   29.2425  -48.6828   39.8044 N   0  0  0  0  0  0  0  0  0  0  0  0
   29.7979  -47.6743   40.3041 N   0  0  0  0  0  0  0  0  0  0  0  0
   23.8358  -49.5407   24.9980 O   0  0  0  0  0  0  0  0  0  0  0  0
   22.2613  -48.1591   23.4385 O   0  0  0  0  0  0  0  0  0  0  0  0
   25.1417  -45.3047   36.1562 O   0  0  0  0  0  0  0  0  0  0  0  0
   26.0026  -47.8888   37.4972 O   0  0  0  0  0  0  0  0  0  0  0  0
   29.9148  -46.8024   39.7515 H   0  0  0  0  0  0  0  0  0  0  0  0
 17  1  1  1
 19  1  1  0
  2  7  2  0
 10  2  1  0
  4  3  1  0
  3 18  1  0
  5  4  1  0
  4 26  1  6
 17  5  1  0
  5 25  1  6
  6  7  1  0
 12  6  2  0
  7  8  1  0
  8  9  1  0
  8 21  2  0
  9 19  1  0
 11 10  2  0
 11 12  1  0
 27 11  1  0
 14 13  1  0
 13 27  1  0
 28 14  1  0
 15 16  1  0
 15 28  1  0
 16 22  1  0
 17 18  1  0
 19 20  2  0
 20 21  1  0
 22 23  1  0
 23 24  2  0
 24 29  1  0
M  CHG  2  18   1  19   1
M  END
$$$$
