
     RDKit          3D

 29 31  0  0  0  0  0  0  0  0999 V2000
   22.3804  -47.2903   28.4741 C   0  0  0  0  0  0  0  0  0  0  0  0
   25.0336  -46.8874   33.4337 C   0  0  0  0  0  0  0  0  0  0  0  0
   22.1963  -46.3508   25.5889 C   0  0  0  0  0  0  0  0  0  0  0  0
   22.0118  -47.8016   25.2003 C   0  0  2  0  0  0  0  0  0  0  0  0
   22.6128  -48.5899   26.3414 C   0  0  2  0  0  0  0  0  0  0  0  0
   25.7065  -44.6950   33.0314 C   0  0  0  0  0  0  0  0  0  0  0  0
   25.0365  -45.8106   32.5953 C   0  0  0  0  0  0  0  0  0  0  0  0
   24.3560  -45.8474   31.2913 C   0  0  0  0  0  0  0  0  0  0  0  0
   23.6359  -46.9981   30.7176 C   0  0  0  0  0  0  0  0  0  0  0  0
   25.6469  -46.9193   34.6597 C   0  0  0  0  0  0  0  0  0  0  0  0
   26.3306  -45.7697   35.0967 C   0  0  0  0  0  0  0  0  0  0  0  0
   26.3515  -44.6659   34.2701 C   0  0  0  0  0  0  0  0  0  0  0  0
   26.9844  -46.8392   37.2579 C   0  0  0  0  0  0  0  0  0  0  0  0
   28.1933  -46.7888   38.1266 C   0  0  0  0  0  0  0  0  0  0  0  0
   30.5140  -46.4546   38.1570 C   0  0  0  0  0  0  0  0  0  0  0  0
   30.8396  -45.0253   38.6577 C   0  0  0  0  0  0  0  0  0  0  0  0
   23.2110  -47.5815   27.2713 C   0  0  1  0  0  0  0  0  0  0  0  0
   23.3070  -46.3226   26.5190 N   0  0  0  0  0  4  0  0  0  0  0  0
   23.1619  -46.5229   29.4460 N   0  0  0  0  0  4  0  0  0  0  0  0
   23.5417  -45.3265   29.3212 N   0  0  0  0  0  0  0  0  0  0  0  0
   24.2677  -44.8978   30.4302 N   0  0  0  0  0  0  0  0  0  0  0  0
   30.3739  -44.9437   40.0122 N   0  0  0  0  0  0  0  0  0  0  0  0
   30.3480  -43.7173   40.6882 N   0  0  0  0  0  0  0  0  0  0  0  0
   29.8995  -43.6840   41.8571 N   0  0  0  0  0  0  0  0  0  0  0  0
   23.6680  -49.3527   25.8105 O   0  0  0  0  0  0  0  0  0  0  0  0
   22.6355  -48.0697   23.9925 O   0  0  0  0  0  0  0  0  0  0  0  0
   26.9156  -45.8725   36.3174 O   0  0  0  0  0  0  0  0  0  0  0  0
   29.3238  -46.3307   37.4851 O   0  0  0  0  0  0  0  0  0  0  0  0
   29.5153  -44.5204   42.3476 H   0  0  0  0  0  0  0  0  0  0  0  0
 17  1  1  1
  1 19  1  6
  2  7  2  0
 10  2  1  0
  4  3  1  0
  3 18  1  6
  5  4  1  0
  4 26  1  6
 17  5  1  0
  5 25  1  6
  6  7  1  0
 12  6  2  0
  7  8  1  0
  9  8  1  1
  8 21  2  0
  9 19  1  0
 11 10  2  0
 11 12  1  0
 27 11  1  0
 14 13  1  0
 13 27  1  6
 14 28  1  6
 15 16  1  0
 15 28  1  6
 16 22  1  6
 18 17  1  6
 19 20  2  0
 20 21  1  0
 22 23  1  0
 23 24  2  0
 24 29  1  0
M  CHG  2  18   1  19   1
M  END
$$$$
