
     RDKit          3D

 29 31  0  0  0  0  0  0  0  0999 V2000
   -2.4917  -33.9264   53.1313 C   0  0  0  0  0  0  0  0  0  0  0  0
   -3.4596  -37.8288   57.8505 C   0  0  0  0  0  0  0  0  0  0  0  0
   -2.1199  -33.6943   50.1233 C   0  0  0  0  0  0  0  0  0  0  0  0
   -3.3213  -32.7743   50.1148 C   0  0  2  0  0  0  0  0  0  0  0  0
   -4.0870  -33.1222   51.3707 C   0  0  2  0  0  0  0  0  0  0  0  0
   -2.1150  -38.6847   56.1531 C   0  0  0  0  0  0  0  0  0  0  0  0
   -2.8666  -37.6425   56.6356 C   0  0  0  0  0  0  0  0  0  0  0  0
   -3.0273  -36.3879   55.8838 C   0  0  0  0  0  0  0  0  0  0  0  0
   -2.3634  -36.0430   54.6141 C   0  0  0  0  0  0  0  0  0  0  0  0
   -3.3507  -38.9709   58.6013 C   0  0  0  0  0  0  0  0  0  0  0  0
   -2.5774  -40.0328   58.0971 C   0  0  0  0  0  0  0  0  0  0  0  0
   -1.9665  -39.8738   56.8708 C   0  0  0  0  0  0  0  0  0  0  0  0
   -3.0010  -41.4507   60.1101 C   0  0  0  0  0  0  0  0  0  0  0  0
   -1.9883  -41.9499   61.0817 C   0  0  0  0  0  0  0  0  0  0  0  0
   -1.0229  -40.0958   62.1441 C   0  0  0  0  0  0  0  0  0  0  0  0
   -1.7898  -38.9405   62.8347 C   0  0  0  0  0  0  0  0  0  0  0  0
   -3.3715  -34.2853   51.9830 C   0  0  1  0  0  0  0  0  0  0  0  0
   -2.4909  -34.8315   50.9408 N   0  0  0  0  0  4  0  0  0  0  0  0
   -2.8511  -34.7264   54.3040 N   0  0  0  0  0  4  0  0  0  0  0  0
   -3.6436  -34.3874   55.2251 N   0  0  0  0  0  0  0  0  0  0  0  0
   -3.7642  -35.3819   56.1932 N   0  0  0  0  0  0  0  0  0  0  0  0
   -0.8851  -38.3459   63.7760 N   0  0  0  0  0  0  0  0  0  0  0  0
   -1.2995  -37.2919   64.6002 N   0  0  0  0  0  0  0  0  0  0  0  0
   -0.4685  -36.7791   65.3846 N   0  0  0  0  0  0  0  0  0  0  0  0
   -5.3586  -33.5711   50.9726 O   0  0  0  0  0  0  0  0  0  0  0  0
   -4.0780  -32.9651   48.9699 O   0  0  0  0  0  0  0  0  0  0  0  0
   -2.5152  -41.1322   58.8909 O   0  0  0  0  0  0  0  0  0  0  0  0
   -1.8700  -41.1733   62.2141 O   0  0  0  0  0  0  0  0  0  0  0  0
    0.5540  -36.9809   65.3483 H   0  0  0  0  0  0  0  0  0  0  0  0
 17  1  1  1
  1 19  1  6
  2  7  2  0
 10  2  1  0
  4  3  1  0
  3 18  1  6
  5  4  1  0
  4 26  1  6
 17  5  1  0
  5 25  1  6
  6  7  1  0
 12  6  2  0
  7  8  1  0
  9  8  1  1
  8 21  2  0
  9 19  1  0
 11 10  2  0
 11 12  1  0
 27 11  1  0
 14 13  1  0
 13 27  1  6
 14 28  1  6
 15 16  1  0
 15 28  1  6
 16 22  1  6
 18 17  1  6
 19 20  2  0
 20 21  1  0
 22 23  1  0
 23 24  2  0
 24 29  1  0
M  CHG  2  18   1  19   1
M  END
$$$$
