
     RDKit          3D

 29 31  0  0  0  0  0  0  0  0999 V2000
   23.2546  -48.3249   28.3883 C   0  0  0  0  0  0  0  0  0  0  0  0
   26.2530  -44.8846   32.5607 C   0  0  0  0  0  0  0  0  0  0  0  0
   21.0877  -47.2389   26.5536 C   0  0  0  0  0  0  0  0  0  0  0  0
   21.3660  -48.4146   25.6423 C   0  0  2  0  0  0  0  0  0  0  0  0
   22.7742  -48.8460   25.9822 C   0  0  2  0  0  0  0  0  0  0  0  0
   25.4798  -46.9121   33.4048 C   0  0  0  0  0  0  0  0  0  0  0  0
   25.6477  -46.0844   32.3230 C   0  0  0  0  0  0  0  0  0  0  0  0
   25.1986  -46.4674   30.9753 C   0  0  0  0  0  0  0  0  0  0  0  0
   24.1907  -47.4930   30.6525 C   0  0  0  0  0  0  0  0  0  0  0  0
   26.6942  -44.4669   33.7899 C   0  0  0  0  0  0  0  0  0  0  0  0
   26.5172  -45.3238   34.8919 C   0  0  0  0  0  0  0  0  0  0  0  0
   25.9074  -46.5430   34.6824 C   0  0  0  0  0  0  0  0  0  0  0  0
   27.3591  -43.6310   36.5252 C   0  0  0  0  0  0  0  0  0  0  0  0
   27.4401  -43.5022   38.0069 C   0  0  0  0  0  0  0  0  0  0  0  0
   28.0201  -44.9058   39.7935 C   0  0  0  0  0  0  0  0  0  0  0  0
   29.2732  -44.7338   40.6880 C   0  0  0  0  0  0  0  0  0  0  0  0
   23.2839  -47.8497   26.9759 C   0  0  1  0  0  0  0  0  0  0  0  0
   22.3813  -46.6918   26.9091 N   0  0  0  0  0  4  0  0  0  0  0  0
   24.1177  -47.4803   29.2165 N   0  0  0  0  0  4  0  0  0  0  0  0
   24.9316  -46.6103   28.8018 N   0  0  0  0  0  0  0  0  0  0  0  0
   25.5973  -45.9844   29.8533 N   0  0  0  0  0  0  0  0  0  0  0  0
   30.2313  -45.7086   40.2522 N   0  0  0  0  0  0  0  0  0  0  0  0
   31.4317  -45.3131   39.6486 N   0  0  0  0  0  0  0  0  0  0  0  0
   32.2793  -46.1900   39.3635 N   0  0  0  0  0  0  0  0  0  0  0  0
   23.5451  -48.7094   24.8143 O   0  0  0  0  0  0  0  0  0  0  0  0
   21.2371  -48.0468   24.3127 O   0  0  0  0  0  0  0  0  0  0  0  0
   26.9750  -44.8457   36.0770 O   0  0  0  0  0  0  0  0  0  0  0  0
   28.3645  -44.3411   38.5911 O   0  0  0  0  0  0  0  0  0  0  0  0
   32.1990  -47.1847   39.6667 H   0  0  0  0  0  0  0  0  0  0  0  0
 17  1  1  1
  1 19  1  6
  2  7  2  0
 10  2  1  0
  4  3  1  0
  3 18  1  6
  5  4  1  0
  4 26  1  6
 17  5  1  0
  5 25  1  6
  6  7  1  0
 12  6  2  0
  7  8  1  0
  9  8  1  1
  8 21  2  0
  9 19  1  0
 11 10  2  0
 11 12  1  0
 27 11  1  0
 14 13  1  0
 13 27  1  6
 14 28  1  6
 15 16  1  0
 15 28  1  6
 16 22  1  6
 18 17  1  6
 19 20  2  0
 20 21  1  0
 22 23  1  0
 23 24  2  0
 24 29  1  0
M  CHG  2  18   1  19   1
M  END
$$$$
