
     RDKit          3D

 29 31  0  0  0  0  0  0  0  0999 V2000
   -0.6710  -39.1518   61.0356 C   0  0  0  0  0  0  0  0  0  0  0  0
   -1.9153  -37.0933   55.9347 C   0  0  0  0  0  0  0  0  0  0  0  0
    0.1197  -37.6588   63.5628 C   0  0  0  0  0  0  0  0  0  0  0  0
    0.3772  -39.0083   64.1973 C   0  0  2  0  0  0  0  0  0  0  0  0
   -0.4532  -39.9818   63.3925 C   0  0  2  0  0  0  0  0  0  0  0  0
   -3.9015  -36.1310   56.6765 C   0  0  0  0  0  0  0  0  0  0  0  0
   -2.7818  -36.8703   56.9652 C   0  0  0  0  0  0  0  0  0  0  0  0
   -2.5262  -37.3975   58.3148 C   0  0  0  0  0  0  0  0  0  0  0  0
   -1.3294  -38.1414   58.7464 C   0  0  0  0  0  0  0  0  0  0  0  0
   -2.0935  -36.6318   54.6559 C   0  0  0  0  0  0  0  0  0  0  0  0
   -3.2448  -35.8745   54.3714 C   0  0  0  0  0  0  0  0  0  0  0  0
   -4.1395  -35.6336   55.3931 C   0  0  0  0  0  0  0  0  0  0  0  0
   -4.2481  -34.6932   52.4118 C   0  0  0  0  0  0  0  0  0  0  0  0
   -3.8887  -34.4090   50.9946 C   0  0  0  0  0  0  0  0  0  0  0  0
   -2.7324  -35.1943   49.1119 C   0  0  0  0  0  0  0  0  0  0  0  0
   -1.2808  -34.6598   49.0286 C   0  0  0  0  0  0  0  0  0  0  0  0
   -1.2306  -39.1550   62.4170 C   0  0  1  0  0  0  0  0  0  0  0  0
   -1.1618  -37.7671   62.8955 N   0  0  0  0  0  4  0  0  0  0  0  0
   -1.5687  -38.4248   60.1356 N   0  0  0  0  0  4  0  0  0  0  0  0
   -2.6910  -37.9336   60.4364 N   0  0  0  0  0  0  0  0  0  0  0  0
   -3.2880  -37.3060   59.3455 N   0  0  0  0  0  0  0  0  0  0  0  0
   -1.3496  -33.3655   48.4137 N   0  0  0  0  0  0  0  0  0  0  0  0
   -0.2042  -32.5686   48.2916 N   0  0  0  0  0  0  0  0  0  0  0  0
   -0.3166  -31.4263   47.7904 N   0  0  0  0  0  0  0  0  0  0  0  0
   -1.3754  -40.5715   64.2751 O   0  0  0  0  0  0  0  0  0  0  0  0
    0.0211  -38.9976   65.5362 O   0  0  0  0  0  0  0  0  0  0  0  0
   -3.3577  -35.4524   53.0862 O   0  0  0  0  0  0  0  0  0  0  0  0
   -2.9912  -35.3050   50.4551 O   0  0  0  0  0  0  0  0  0  0  0  0
   -1.2354  -30.9871   47.5657 H   0  0  0  0  0  0  0  0  0  0  0  0
 17  1  1  6
  1 19  1  6
  2  7  2  0
 10  2  1  0
  4  3  1  0
  3 18  1  6
  5  4  1  0
  4 26  1  1
 17  5  1  0
  5 25  1  1
  6  7  1  0
 12  6  2  0
  7  8  1  0
  9  8  1  1
  8 21  2  0
  9 19  1  0
 11 10  2  0
 11 12  1  0
 27 11  1  0
 14 13  1  0
 13 27  1  6
 14 28  1  6
 15 16  1  0
 15 28  1  6
 16 22  1  6
 18 17  1  6
 19 20  2  0
 20 21  1  0
 22 23  1  0
 23 24  2  0
 24 29  1  0
M  CHG  2  18   1  19   1
M  END
$$$$
