
     RDKit          3D

 29 31  0  0  0  0  0  0  0  0999 V2000
   -0.6008  -39.0747   60.8367 C   0  0  0  0  0  0  0  0  0  0  0  0
   -3.7166  -35.7318   56.6533 C   0  0  0  0  0  0  0  0  0  0  0  0
    0.6431  -38.2992   63.4998 C   0  0  0  0  0  0  0  0  0  0  0  0
    0.3631  -39.7121   63.9640 C   0  0  2  0  0  0  0  0  0  0  0  0
   -0.7562  -40.2000   63.0730 C   0  0  2  0  0  0  0  0  0  0  0  0
   -2.3712  -37.3963   55.7364 C   0  0  0  0  0  0  0  0  0  0  0  0
   -2.8109  -36.7326   56.8544 C   0  0  0  0  0  0  0  0  0  0  0  0
   -2.3317  -37.0791   58.2016 C   0  0  0  0  0  0  0  0  0  0  0  0
   -1.5420  -38.2692   58.5651 C   0  0  0  0  0  0  0  0  0  0  0  0
   -4.2030  -35.3589   55.4267 C   0  0  0  0  0  0  0  0  0  0  0  0
   -3.7456  -36.0465   54.2875 C   0  0  0  0  0  0  0  0  0  0  0  0
   -2.8289  -37.0625   54.4595 C   0  0  0  0  0  0  0  0  0  0  0  0
   -4.3645  -36.1541   51.8693 C   0  0  0  0  0  0  0  0  0  0  0  0
   -4.1907  -35.1842   50.7523 C   0  0  0  0  0  0  0  0  0  0  0  0
   -2.0311  -35.7388   50.0263 C   0  0  0  0  0  0  0  0  0  0  0  0
   -0.6967  -34.9854   49.7996 C   0  0  0  0  0  0  0  0  0  0  0  0
   -1.1474  -39.0324   62.2227 C   0  0  1  0  0  0  0  0  0  0  0  0
   -0.5722  -37.8390   62.8590 N   0  0  0  0  0  4  0  0  0  0  0  0
   -1.3355  -38.1397   59.9822 N   0  0  0  0  0  4  0  0  0  0  0  0
   -1.9017  -37.0754   60.3536 N   0  0  0  0  0  0  0  0  0  0  0  0
   -2.5120  -36.4173   59.2881 N   0  0  0  0  0  0  0  0  0  0  0  0
   -1.0339  -33.6210   49.5121 N   0  0  0  0  0  0  0  0  0  0  0  0
   -1.5300  -33.2555   48.2542 N   0  0  0  0  0  0  0  0  0  0  0  0
   -1.6742  -32.0387   47.9948 N   0  0  0  0  0  0  0  0  0  0  0  0
   -1.8492  -40.5017   63.9045 O   0  0  0  0  0  0  0  0  0  0  0  0
    0.0111  -39.7281   65.3040 O   0  0  0  0  0  0  0  0  0  0  0  0
   -4.2667  -35.6237   53.1075 O   0  0  0  0  0  0  0  0  0  0  0  0
   -2.8839  -34.7976   50.5462 O   0  0  0  0  0  0  0  0  0  0  0  0
   -2.0841  -31.3542   48.6664 H   0  0  0  0  0  0  0  0  0  0  0  0
 17  1  1  6
  1 19  1  6
  2  7  2  0
 10  2  1  0
  4  3  1  0
  3 18  1  6
  5  4  1  0
  4 26  1  1
 17  5  1  0
  5 25  1  1
  6  7  1  0
 12  6  2  0
  7  8  1  0
  9  8  1  1
  8 21  2  0
  9 19  1  0
 11 10  2  0
 11 12  1  0
 27 11  1  0
 14 13  1  0
 13 27  1  6
 14 28  1  6
 15 16  1  0
 15 28  1  6
 16 22  1  6
 18 17  1  6
 19 20  2  0
 20 21  1  0
 22 23  1  0
 23 24  2  0
 24 29  1  0
M  CHG  2  18   1  19   1
M  END
$$$$
