
     RDKit          3D

 29 31  0  0  0  0  0  0  0  0999 V2000
   -0.5140  -39.2947   61.6378 C   0  0  0  0  0  0  0  0  0  0  0  0
   -2.3858  -38.4996   56.2956 C   0  0  0  0  0  0  0  0  0  0  0  0
   -1.1844  -37.8809   64.1731 C   0  0  0  0  0  0  0  0  0  0  0  0
   -0.2178  -38.9505   64.5551 C   0  0  2  0  0  0  0  0  0  0  0  0
   -0.8058  -40.1955   63.9398 C   0  0  2  0  0  0  0  0  0  0  0  0
   -3.5786  -36.6149   56.9919 C   0  0  0  0  0  0  0  0  0  0  0  0
   -2.7212  -37.6423   57.3106 C   0  0  0  0  0  0  0  0  0  0  0  0
   -2.1892  -37.8198   58.6621 C   0  0  0  0  0  0  0  0  0  0  0  0
   -1.4685  -38.9577   59.2412 C   0  0  0  0  0  0  0  0  0  0  0  0
   -2.8839  -38.3488   54.9963 C   0  0  0  0  0  0  0  0  0  0  0  0
   -3.7404  -37.3242   54.6684 C   0  0  0  0  0  0  0  0  0  0  0  0
   -4.0772  -36.4499   55.7231 C   0  0  0  0  0  0  0  0  0  0  0  0
   -3.7363  -37.0603   52.1963 C   0  0  0  0  0  0  0  0  0  0  0  0
   -2.7743  -35.9228   52.0073 C   0  0  0  0  0  0  0  0  0  0  0  0
   -1.0449  -35.2891   53.3446 C   0  0  0  0  0  0  0  0  0  0  0  0
   -0.8147  -33.8938   52.8667 C   0  0  0  0  0  0  0  0  0  0  0  0
   -1.5079  -39.6541   62.7183 C   0  0  1  0  0  0  0  0  0  0  0  0
   -2.1022  -38.4172   63.1873 N   0  0  0  0  0  4  0  0  0  0  0  0
   -1.2088  -38.5443   60.5969 N   0  0  0  0  0  4  0  0  0  0  0  0
   -1.6942  -37.3881   60.7481 N   0  0  0  0  0  0  0  0  0  0  0  0
   -2.2923  -36.9268   59.5944 N   0  0  0  0  0  0  0  0  0  0  0  0
    0.5023  -33.4491   53.3442 N   0  0  0  0  0  0  0  0  0  0  0  0
    1.6483  -34.1237   52.8926 N   0  0  0  0  0  0  0  0  0  0  0  0
    2.7982  -33.8002   53.2775 N   0  0  0  0  0  0  0  0  0  0  0  0
   -1.7496  -40.7211   64.8003 O   0  0  0  0  0  0  0  0  0  0  0  0
   -0.0565  -39.0890   65.9360 O   0  0  0  0  0  0  0  0  0  0  0  0
   -4.2847  -37.0732   53.4415 O   0  0  0  0  0  0  0  0  0  0  0  0
   -1.4820  -36.1684   52.3951 O   0  0  0  0  0  0  0  0  0  0  0  0
    2.9291  -33.1034   54.0368 H   0  0  0  0  0  0  0  0  0  0  0  0
 17  1  1  6
 19  1  1  0
  2  7  2  0
 10  2  1  0
  4  3  1  0
  3 18  1  0
  5  4  1  0
  4 26  1  1
 17  5  1  0
  5 25  1  1
  6  7  1  0
 12  6  2  0
  7  8  1  0
  8  9  1  0
  8 21  2  0
  9 19  1  0
 11 10  2  0
 11 12  1  0
 27 11  1  0
 14 13  1  0
 13 27  1  0
 28 14  1  0
 15 16  1  0
 15 28  1  0
 16 22  1  0
 17 18  1  0
 19 20  2  0
 20 21  1  0
 22 23  1  0
 23 24  2  0
 24 29  1  0
M  CHG  2  18   1  19   1
M  END
$$$$
