
     RDKit          3D

 29 31  0  0  0  0  0  0  0  0999 V2000
   22.5515  -47.3213   28.0401 C   0  0  0  0  0  0  0  0  0  0  0  0
   24.2411  -47.6211   33.4152 C   0  0  0  0  0  0  0  0  0  0  0  0
   23.5691  -46.6213   25.2624 C   0  0  0  0  0  0  0  0  0  0  0  0
   22.7266  -47.7648   24.7404 C   0  0  2  0  0  0  0  0  0  0  0  0
   22.5278  -48.6765   25.9296 C   0  0  2  0  0  0  0  0  0  0  0  0
   26.0048  -46.1427   33.0616 C   0  0  0  0  0  0  0  0  0  0  0  0
   24.9136  -46.8029   32.5546 C   0  0  0  0  0  0  0  0  0  0  0  0
   24.4886  -46.6400   31.1554 C   0  0  0  0  0  0  0  0  0  0  0  0
   23.4538  -47.4282   30.4628 C   0  0  0  0  0  0  0  0  0  0  0  0
   24.5838  -47.8176   34.7283 C   0  0  0  0  0  0  0  0  0  0  0  0
   25.7041  -47.1353   35.2375 C   0  0  0  0  0  0  0  0  0  0  0  0
   26.4043  -46.3019   34.3906 C   0  0  0  0  0  0  0  0  0  0  0  0
   25.8980  -48.4596   37.3471 C   0  0  0  0  0  0  0  0  0  0  0  0
   26.5839  -48.3250   38.6624 C   0  0  0  0  0  0  0  0  0  0  0  0
   28.6830  -48.4091   39.7041 C   0  0  0  0  0  0  0  0  0  0  0  0
   30.1037  -48.3412   39.0902 C   0  0  0  0  0  0  0  0  0  0  0  0
   23.3433  -48.0923   27.0400 C   0  0  1  0  0  0  0  0  0  0  0  0
   24.2717  -47.1363   26.4202 N   0  0  0  0  0  4  0  0  0  0  0  0
   23.4212  -46.8818   29.1331 N   0  0  0  0  0  4  0  0  0  0  0  0
   24.2771  -45.9566   29.0808 N   0  0  0  0  0  0  0  0  0  0  0  0
   24.9355  -45.7941   30.2977 N   0  0  0  0  0  0  0  0  0  0  0  0
   30.2654  -47.0167   38.5634 N   0  0  0  0  0  0  0  0  0  0  0  0
   31.3985  -46.6776   37.8131 N   0  0  0  0  0  0  0  0  0  0  0  0
   31.5326  -45.4935   37.4276 N   0  0  0  0  0  0  0  0  0  0  0  0
   23.0937  -49.9208   25.5998 O   0  0  0  0  0  0  0  0  0  0  0  0
   23.3642  -48.4050   23.6901 O   0  0  0  0  0  0  0  0  0  0  0  0
   25.9865  -47.3784   36.5428 O   0  0  0  0  0  0  0  0  0  0  0  0
   27.8723  -48.8143   38.6736 O   0  0  0  0  0  0  0  0  0  0  0  0
   30.8432  -44.7402   37.6397 H   0  0  0  0  0  0  0  0  0  0  0  0
 17  1  1  1
  1 19  1  6
  2  7  2  0
 10  2  1  0
  4  3  1  0
  3 18  1  6
  5  4  1  0
  4 26  1  6
 17  5  1  0
  5 25  1  6
  6  7  1  0
 12  6  2  0
  7  8  1  0
  9  8  1  1
  8 21  2  0
  9 19  1  0
 11 10  2  0
 11 12  1  0
 27 11  1  0
 14 13  1  0
 13 27  1  6
 14 28  1  6
 15 16  1  0
 15 28  1  6
 16 22  1  6
 18 17  1  6
 19 20  2  0
 20 21  1  0
 22 23  1  0
 23 24  2  0
 24 29  1  0
M  CHG  2  18   1  19   1
M  END
$$$$
