
     RDKit          3D

 29 31  0  0  0  0  0  0  0  0999 V2000
   -2.1994  -37.6794   62.8661 C   0  0  0  0  0  0  0  0  0  0  0  0
   -4.6322  -37.9007   57.1821 C   0  0  0  0  0  0  0  0  0  0  0  0
   -3.5911  -39.2843   65.0404 C   0  0  0  0  0  0  0  0  0  0  0  0
   -2.2573  -39.3468   65.7525 C   0  0  2  0  0  0  0  0  0  0  0  0
   -1.2267  -39.1269   64.6689 C   0  0  2  0  0  0  0  0  0  0  0  0
   -5.7627  -36.4729   58.6328 C   0  0  0  0  0  0  0  0  0  0  0  0
   -4.6993  -37.3118   58.4114 C   0  0  0  0  0  0  0  0  0  0  0  0
   -3.6828  -37.5661   59.4443 C   0  0  0  0  0  0  0  0  0  0  0  0
   -3.8286  -37.3151   60.8892 C   0  0  0  0  0  0  0  0  0  0  0  0
   -5.5445  -37.7072   56.1770 C   0  0  0  0  0  0  0  0  0  0  0  0
   -6.6305  -36.8447   56.4149 C   0  0  0  0  0  0  0  0  0  0  0  0
   -6.7254  -36.2357   57.6487 C   0  0  0  0  0  0  0  0  0  0  0  0
   -7.6459  -37.3044   54.1789 C   0  0  0  0  0  0  0  0  0  0  0  0
   -8.7500  -36.7654   53.3369 C   0  0  0  0  0  0  0  0  0  0  0  0
   -9.4115  -36.6489   51.0903 C   0  0  0  0  0  0  0  0  0  0  0  0
  -10.9342  -36.6194   51.3740 C   0  0  0  0  0  0  0  0  0  0  0  0
   -1.9871  -39.0616   63.3816 C   0  0  1  0  0  0  0  0  0  0  0  0
   -3.3222  -39.6119   63.6549 N   0  0  0  0  0  4  0  0  0  0  0  0
   -2.5703  -37.7266   61.4503 N   0  0  0  0  0  4  0  0  0  0  0  0
   -1.8459  -38.1348   60.5016 N   0  0  0  0  0  0  0  0  0  0  0  0
   -2.5027  -38.0456   59.2763 N   0  0  0  0  0  0  0  0  0  0  0  0
  -11.3038  -37.9401   51.7948 N   0  0  0  0  0  0  0  0  0  0  0  0
  -11.6505  -38.9203   50.8561 N   0  0  0  0  0  0  0  0  0  0  0  0
  -12.0442  -40.0355   51.2683 N   0  0  0  0  0  0  0  0  0  0  0  0
   -0.4180  -40.2763   64.6236 O   0  0  0  0  0  0  0  0  0  0  0  0
   -2.0968  -40.5672   66.3885 O   0  0  0  0  0  0  0  0  0  0  0  0
   -7.4948  -36.7017   55.3780 O   0  0  0  0  0  0  0  0  0  0  0  0
   -8.8760  -37.3892   52.1144 O   0  0  0  0  0  0  0  0  0  0  0  0
  -12.2224  -40.2443   52.2743 H   0  0  0  0  0  0  0  0  0  0  0  0
 17  1  1  1
  1 19  1  6
  2  7  2  0
 10  2  1  0
  4  3  1  0
  3 18  1  6
  5  4  1  0
  4 26  1  6
 17  5  1  0
  5 25  1  6
  6  7  1  0
 12  6  2  0
  7  8  1  0
  9  8  1  1
  8 21  2  0
  9 19  1  0
 11 10  2  0
 11 12  1  0
 27 11  1  0
 14 13  1  0
 13 27  1  6
 14 28  1  6
 15 16  1  0
 15 28  1  6
 16 22  1  6
 18 17  1  6
 19 20  2  0
 20 21  1  0
 22 23  1  0
 23 24  2  0
 24 29  1  0
M  CHG  2  18   1  19   1
M  END
$$$$
