
     RDKit          3D

 29 31  0  0  0  0  0  0  0  0999 V2000
   22.3942  -48.0173   27.9206 C   0  0  0  0  0  0  0  0  0  0  0  0
   23.5073  -46.9035   33.4754 C   0  0  0  0  0  0  0  0  0  0  0  0
   21.6817  -46.1386   25.7211 C   0  0  0  0  0  0  0  0  0  0  0  0
   21.2249  -47.4824   25.2630 C   0  0  2  0  0  0  0  0  0  0  0  0
   22.4405  -48.3541   25.4548 C   0  0  2  0  0  0  0  0  0  0  0  0
   25.7234  -46.5246   32.8389 C   0  0  0  0  0  0  0  0  0  0  0  0
   24.4215  -46.7633   32.4642 C   0  0  0  0  0  0  0  0  0  0  0  0
   24.0229  -46.8649   31.0600 C   0  0  0  0  0  0  0  0  0  0  0  0
   23.1173  -47.8184   30.4118 C   0  0  0  0  0  0  0  0  0  0  0  0
   23.8672  -46.8111   34.8248 C   0  0  0  0  0  0  0  0  0  0  0  0
   25.1658  -46.5716   35.2085 C   0  0  0  0  0  0  0  0  0  0  0  0
   26.0959  -46.4299   34.1572 C   0  0  0  0  0  0  0  0  0  0  0  0
   26.7238  -45.8193   36.9939 C   0  0  0  0  0  0  0  0  0  0  0  0
   27.8234  -46.7735   37.3618 C   0  0  0  0  0  0  0  0  0  0  0  0
   28.8567  -45.6476   39.0486 C   0  0  0  0  0  0  0  0  0  0  0  0
   30.0677  -44.9459   39.5674 C   0  0  0  0  0  0  0  0  0  0  0  0
   23.1233  -47.7050   26.6340 C   0  0  1  0  0  0  0  0  0  0  0  0
   22.9641  -46.2860   26.3809 N   0  0  0  0  0  4  0  0  0  0  0  0
   23.1262  -47.4133   29.0290 N   0  0  0  0  0  4  0  0  0  0  0  0
   23.8946  -46.4164   28.9234 N   0  0  0  0  0  0  0  0  0  0  0  0
   24.4495  -46.0644   30.1357 N   0  0  0  0  0  0  0  0  0  0  0  0
   29.8027  -44.5183   40.9483 N   0  0  0  0  0  0  0  0  0  0  0  0
   30.6934  -44.9112   41.9605 N   0  0  0  0  0  0  0  0  0  0  0  0
   30.5392  -44.5480   43.1519 N   0  0  0  0  0  0  0  0  0  0  0  0
   23.2575  -48.2384   24.3473 O   0  0  0  0  0  0  0  0  0  0  0  0
   20.7864  -47.5000   23.9365 O   0  0  0  0  0  0  0  0  0  0  0  0
   25.6339  -46.4563   36.4859 O   0  0  0  0  0  0  0  0  0  0  0  0
   28.9861  -46.1963   37.8044 O   0  0  0  0  0  0  0  0  0  0  0  0
   30.5213  -45.2444   43.9226 H   0  0  0  0  0  0  0  0  0  0  0  0
 17  1  1  1
 19  1  1  0
  2  7  2  0
 10  2  1  0
  4  3  1  0
  3 18  1  0
  5  4  1  0
  4 26  1  6
 17  5  1  0
  5 25  1  6
  6  7  1  0
 12  6  2  0
  7  8  1  0
  8  9  1  0
  8 21  2  0
  9 19  1  0
 11 10  2  0
 11 12  1  0
 27 11  1  0
 14 13  1  0
 13 27  1  0
 28 14  1  0
 15 16  1  0
 15 28  1  0
 16 22  1  0
 17 18  1  0
 19 20  2  0
 20 21  1  0
 22 23  1  0
 23 24  2  0
 24 29  1  0
M  CHG  2  18   1  19   1
M  END
$$$$
