
     RDKit          3D

 29 31  0  0  0  0  0  0  0  0999 V2000
   22.5274  -47.4089   28.1630 C   0  0  0  0  0  0  0  0  0  0  0  0
   24.0398  -46.3818   33.5792 C   0  0  0  0  0  0  0  0  0  0  0  0
   21.9127  -45.9869   25.6182 C   0  0  0  0  0  0  0  0  0  0  0  0
   21.3477  -47.3578   25.4570 C   0  0  2  0  0  0  0  0  0  0  0  0
   22.4985  -48.2606   25.8242 C   0  0  2  0  0  0  0  0  0  0  0  0
   26.2910  -46.6067   32.9949 C   0  0  0  0  0  0  0  0  0  0  0  0
   24.9736  -46.5935   32.5989 C   0  0  0  0  0  0  0  0  0  0  0  0
   24.5791  -46.7951   31.2044 C   0  0  0  0  0  0  0  0  0  0  0  0
   23.2518  -47.0487   30.6356 C   0  0  0  0  0  0  0  0  0  0  0  0
   24.3952  -46.1879   34.9190 C   0  0  0  0  0  0  0  0  0  0  0  0
   25.7094  -46.1982   35.3237 C   0  0  0  0  0  0  0  0  0  0  0  0
   26.6596  -46.4176   34.3041 C   0  0  0  0  0  0  0  0  0  0  0  0
   27.4365  -45.8400   37.0757 C   0  0  0  0  0  0  0  0  0  0  0  0
   27.8273  -44.3914   37.1362 C   0  0  0  0  0  0  0  0  0  0  0  0
   29.5450  -44.9889   38.5047 C   0  0  0  0  0  0  0  0  0  0  0  0
   29.7722  -45.2162   39.9624 C   0  0  0  0  0  0  0  0  0  0  0  0
   23.2516  -47.4321   26.8365 C   0  0  1  0  0  0  0  0  0  0  0  0
   23.1936  -46.0904   26.2892 N   0  0  0  0  0  4  0  0  0  0  0  0
   23.5009  -47.1573   29.2205 N   0  0  0  0  0  4  0  0  0  0  0  0
   24.7391  -46.9939   29.0324 N   0  0  0  0  0  0  0  0  0  0  0  0
   25.4139  -46.7732   30.2145 N   0  0  0  0  0  0  0  0  0  0  0  0
   30.5699  -44.0998   40.4893 N   0  0  0  0  0  0  0  0  0  0  0  0
   31.9613  -44.1145   40.3000 N   0  0  0  0  0  0  0  0  0  0  0  0
   32.7133  -43.2889   40.8726 N   0  0  0  0  0  0  0  0  0  0  0  0
   23.2993  -48.4445   24.7141 O   0  0  0  0  0  0  0  0  0  0  0  0
   20.8824  -47.6208   24.1661 O   0  0  0  0  0  0  0  0  0  0  0  0
   26.1763  -46.0167   36.5939 O   0  0  0  0  0  0  0  0  0  0  0  0
   28.6174  -44.0342   38.1987 O   0  0  0  0  0  0  0  0  0  0  0  0
   32.3387  -42.6332   41.5861 H   0  0  0  0  0  0  0  0  0  0  0  0
 17  1  1  1
 19  1  1  0
  2  7  2  0
 10  2  1  0
  4  3  1  0
  3 18  1  0
  5  4  1  0
  4 26  1  6
 17  5  1  0
  5 25  1  6
  6  7  1  0
 12  6  2  0
  7  8  1  0
  8  9  1  0
  8 21  2  0
  9 19  1  0
 11 10  2  0
 11 12  1  0
 27 11  1  0
 14 13  1  0
 13 27  1  0
 28 14  1  0
 15 16  1  0
 15 28  1  0
 16 22  1  0
 17 18  1  0
 19 20  2  0
 20 21  1  0
 22 23  1  0
 23 24  2  0
 24 29  1  0
M  CHG  2  18   1  19   1
M  END
$$$$
