
     RDKit          3D

 29 31  0  0  0  0  0  0  0  0999 V2000
   22.4811  -47.9960   27.9894 C   0  0  0  0  0  0  0  0  0  0  0  0
   26.2451  -46.3246   32.5539 C   0  0  0  0  0  0  0  0  0  0  0  0
   22.5947  -45.9139   25.7774 C   0  0  0  0  0  0  0  0  0  0  0  0
   21.8401  -46.8962   24.9080 C   0  0  2  0  0  0  0  0  0  0  0  0
   22.1155  -48.2501   25.5209 C   0  0  2  0  0  0  0  0  0  0  0  0
   24.2097  -47.1216   33.3560 C   0  0  0  0  0  0  0  0  0  0  0  0
   25.0519  -46.9317   32.2890 C   0  0  0  0  0  0  0  0  0  0  0  0
   24.6896  -47.3586   30.9284 C   0  0  0  0  0  0  0  0  0  0  0  0
   23.3436  -47.3094   30.3302 C   0  0  0  0  0  0  0  0  0  0  0  0
   26.6435  -45.9030   33.7963 C   0  0  0  0  0  0  0  0  0  0  0  0
   25.7722  -46.1032   34.8829 C   0  0  0  0  0  0  0  0  0  0  0  0
   24.5584  -46.7136   34.6456 C   0  0  0  0  0  0  0  0  0  0  0  0
   27.4381  -45.6298   36.6837 C   0  0  0  0  0  0  0  0  0  0  0  0
   27.5384  -44.7099   37.8509 C   0  0  0  0  0  0  0  0  0  0  0  0
   26.8596  -44.8520   40.0908 C   0  0  0  0  0  0  0  0  0  0  0  0
   26.9751  -46.3494   40.4704 C   0  0  0  0  0  0  0  0  0  0  0  0
   23.0917  -48.0118   26.6298 C   0  0  1  0  0  0  0  0  0  0  0  0
   23.6541  -46.6714   26.4124 N   0  0  0  0  0  4  0  0  0  0  0  0
   23.5250  -47.8324   29.0031 N   0  0  0  0  0  4  0  0  0  0  0  0
   24.7454  -48.1238   28.8724 N   0  0  0  0  0  0  0  0  0  0  0  0
   25.4690  -47.8437   30.0294 N   0  0  0  0  0  0  0  0  0  0  0  0
   27.6132  -46.4043   41.7541 N   0  0  0  0  0  0  0  0  0  0  0  0
   27.2759  -45.4913   42.7614 N   0  0  0  0  0  0  0  0  0  0  0  0
   26.1396  -45.5637   43.2831 N   0  0  0  0  0  0  0  0  0  0  0  0
   22.7667  -49.0247   24.5446 O   0  0  0  0  0  0  0  0  0  0  0  0
   22.2697  -46.8190   23.5931 O   0  0  0  0  0  0  0  0  0  0  0  0
   26.2296  -45.6598   36.0816 O   0  0  0  0  0  0  0  0  0  0  0  0
   26.5144  -44.8502   38.7626 O   0  0  0  0  0  0  0  0  0  0  0  0
   25.2790  -45.8134   42.7497 H   0  0  0  0  0  0  0  0  0  0  0  0
 17  1  1  1
  1 19  1  6
  2  7  2  0
 10  2  1  0
  4  3  1  0
  3 18  1  6
  5  4  1  0
  4 26  1  6
 17  5  1  0
  5 25  1  6
  6  7  1  0
 12  6  2  0
  7  8  1  0
  9  8  1  1
  8 21  2  0
  9 19  1  0
 11 10  2  0
 11 12  1  0
 27 11  1  0
 14 13  1  0
 13 27  1  6
 14 28  1  6
 15 16  1  0
 15 28  1  6
 16 22  1  6
 18 17  1  6
 19 20  2  0
 20 21  1  0
 22 23  1  0
 23 24  2  0
 24 29  1  0
M  CHG  2  18   1  19   1
M  END
$$$$
