
     RDKit          3D

 29 31  0  0  0  0  0  0  0  0999 V2000
   22.3407  -47.8764   27.8713 C   0  0  0  0  0  0  0  0  0  0  0  0
   25.2966  -45.7300   32.8304 C   0  0  0  0  0  0  0  0  0  0  0  0
   21.3957  -46.5470   25.3782 C   0  0  0  0  0  0  0  0  0  0  0  0
   21.3993  -48.0075   25.0760 C   0  0  2  0  0  0  0  0  0  0  0  0
   22.7800  -48.4513   25.4896 C   0  0  2  0  0  0  0  0  0  0  0  0
   24.2414  -47.7648   33.2838 C   0  0  0  0  0  0  0  0  0  0  0  0
   24.4970  -46.7516   32.3892 C   0  0  0  0  0  0  0  0  0  0  0  0
   23.9472  -46.7549   31.0332 C   0  0  0  0  0  0  0  0  0  0  0  0
   23.3248  -47.8475   30.2794 C   0  0  0  0  0  0  0  0  0  0  0  0
   25.8320  -45.7065   34.1233 C   0  0  0  0  0  0  0  0  0  0  0  0
   25.5828  -46.7155   35.0238 C   0  0  0  0  0  0  0  0  0  0  0  0
   24.7581  -47.7601   34.5561 C   0  0  0  0  0  0  0  0  0  0  0  0
   27.1767  -46.3139   36.8891 C   0  0  0  0  0  0  0  0  0  0  0  0
   27.3405  -46.7927   38.3030 C   0  0  0  0  0  0  0  0  0  0  0  0
   27.9429  -46.2549   40.4310 C   0  0  0  0  0  0  0  0  0  0  0  0
   27.0116  -46.2779   41.5973 C   0  0  0  0  0  0  0  0  0  0  0  0
   23.1014  -47.5036   26.6195 C   0  0  1  0  0  0  0  0  0  0  0  0
   22.5770  -46.2328   26.1577 N   0  0  0  0  0  4  0  0  0  0  0  0
   22.9881  -47.2431   29.0155 N   0  0  0  0  0  4  0  0  0  0  0  0
   23.3541  -46.0349   29.0552 N   0  0  0  0  0  0  0  0  0  0  0  0
   23.9365  -45.7137   30.2631 N   0  0  0  0  0  0  0  0  0  0  0  0
   25.7027  -45.7737   41.1584 N   0  0  0  0  0  0  0  0  0  0  0  0
   24.9760  -44.9379   42.0218 N   0  0  0  0  0  0  0  0  0  0  0  0
   23.8575  -44.4691   41.6989 N   0  0  0  0  0  0  0  0  0  0  0  0
   23.6585  -48.2193   24.4495 O   0  0  0  0  0  0  0  0  0  0  0  0
   21.1485  -48.2996   23.7330 O   0  0  0  0  0  0  0  0  0  0  0  0
   26.0507  -46.8046   36.3035 O   0  0  0  0  0  0  0  0  0  0  0  0
   27.4016  -45.8106   39.2583 O   0  0  0  0  0  0  0  0  0  0  0  0
   23.4147  -44.7236   40.7942 H   0  0  0  0  0  0  0  0  0  0  0  0
 17  1  1  1
 19  1  1  0
  2  7  2  0
 10  2  1  0
  4  3  1  0
  3 18  1  0
  5  4  1  0
  4 26  1  6
 17  5  1  0
  5 25  1  6
  6  7  1  0
 12  6  2  0
  7  8  1  0
  8  9  1  0
  8 21  2  0
  9 19  1  0
 11 10  2  0
 11 12  1  0
 27 11  1  0
 14 13  1  0
 13 27  1  0
 28 14  1  0
 15 16  1  0
 15 28  1  0
 16 22  1  0
 17 18  1  0
 19 20  2  0
 20 21  1  0
 22 23  1  0
 23 24  2  0
 24 29  1  0
M  CHG  2  18   1  19   1
M  END
$$$$
