
     RDKit          3D

 29 31  0  0  0  0  0  0  0  0999 V2000
   -1.0736  -39.9739   61.0201 C   0  0  0  0  0  0  0  0  0  0  0  0
   -2.0433  -38.5358   55.6525 C   0  0  0  0  0  0  0  0  0  0  0  0
    0.6588  -38.3180   62.8903 C   0  0  0  0  0  0  0  0  0  0  0  0
    0.5293  -39.4424   63.8948 C   0  0  2  0  0  0  0  0  0  0  0  0
   -0.7301  -40.1773   63.4964 C   0  0  2  0  0  0  0  0  0  0  0  0
   -3.9645  -37.3389   56.1985 C   0  0  0  0  0  0  0  0  0  0  0  0
   -2.8946  -38.0878   56.6206 C   0  0  0  0  0  0  0  0  0  0  0  0
   -2.6742  -38.3944   58.0426 C   0  0  0  0  0  0  0  0  0  0  0  0
   -1.6414  -39.2924   58.5895 C   0  0  0  0  0  0  0  0  0  0  0  0
   -2.1907  -38.2866   54.3123 C   0  0  0  0  0  0  0  0  0  0  0  0
   -3.2910  -37.5174   53.8910 C   0  0  0  0  0  0  0  0  0  0  0  0
   -4.1692  -37.0515   54.8470 C   0  0  0  0  0  0  0  0  0  0  0  0
   -3.6342  -36.2413   51.7706 C   0  0  0  0  0  0  0  0  0  0  0  0
   -2.5304  -35.8514   50.8497 C   0  0  0  0  0  0  0  0  0  0  0  0
   -1.3325  -34.0578   49.9298 C   0  0  0  0  0  0  0  0  0  0  0  0
   -1.3171  -32.5172   50.0916 C   0  0  0  0  0  0  0  0  0  0  0  0
   -1.3274  -39.3943   62.3696 C   0  0  1  0  0  0  0  0  0  0  0  0
   -0.6771  -38.0764   62.3839 N   0  0  0  0  0  4  0  0  0  0  0  0
   -1.8481  -39.2476   60.0117 N   0  0  0  0  0  4  0  0  0  0  0  0
   -2.8168  -38.4699   60.2312 N   0  0  0  0  0  0  0  0  0  0  0  0
   -3.3319  -37.9419   59.0495 N   0  0  0  0  0  0  0  0  0  0  0  0
   -2.2539  -32.1994   51.1305 N   0  0  0  0  0  0  0  0  0  0  0  0
   -2.3613  -30.8926   51.6231 N   0  0  0  0  0  0  0  0  0  0  0  0
   -3.1563  -30.6680   52.5645 N   0  0  0  0  0  0  0  0  0  0  0  0
   -1.6194  -40.0990   64.5827 O   0  0  0  0  0  0  0  0  0  0  0  0
    0.4586  -38.9427   65.1851 O   0  0  0  0  0  0  0  0  0  0  0  0
   -3.3758  -37.3122   52.5518 O   0  0  0  0  0  0  0  0  0  0  0  0
   -2.2744  -34.4974   50.8259 O   0  0  0  0  0  0  0  0  0  0  0  0
   -3.3581  -31.3571   53.3208 H   0  0  0  0  0  0  0  0  0  0  0  0
 17  1  1  6
  1 19  1  6
  2  7  2  0
 10  2  1  0
  4  3  1  0
  3 18  1  6
  5  4  1  0
  4 26  1  1
 17  5  1  0
  5 25  1  1
  6  7  1  0
 12  6  2  0
  7  8  1  0
  9  8  1  1
  8 21  2  0
  9 19  1  0
 11 10  2  0
 11 12  1  0
 27 11  1  0
 14 13  1  0
 13 27  1  6
 14 28  1  6
 15 16  1  0
 15 28  1  6
 16 22  1  6
 18 17  1  6
 19 20  2  0
 20 21  1  0
 22 23  1  0
 23 24  2  0
 24 29  1  0
M  CHG  2  18   1  19   1
M  END
$$$$
