
     RDKit          3D

 29 31  0  0  0  0  0  0  0  0999 V2000
   -1.0601  -36.7877   62.3917 C   0  0  0  0  0  0  0  0  0  0  0  0
   -2.6147  -35.6183   57.0073 C   0  0  0  0  0  0  0  0  0  0  0  0
   -0.9310  -39.7634   62.3265 C   0  0  0  0  0  0  0  0  0  0  0  0
   -1.5972  -39.4201   63.6160 C   0  0  2  0  0  0  0  0  0  0  0  0
   -0.6658  -38.4101   64.2379 C   0  0  2  0  0  0  0  0  0  0  0  0
   -1.8047  -37.7050   56.3369 C   0  0  0  0  0  0  0  0  0  0  0  0
   -1.9734  -36.7819   57.3428 C   0  0  0  0  0  0  0  0  0  0  0  0
   -1.4953  -37.0206   58.7049 C   0  0  0  0  0  0  0  0  0  0  0  0
   -1.8945  -36.3796   59.9616 C   0  0  0  0  0  0  0  0  0  0  0  0
   -3.0789  -35.3692   55.7106 C   0  0  0  0  0  0  0  0  0  0  0  0
   -2.9157  -36.2866   54.6992 C   0  0  0  0  0  0  0  0  0  0  0  0
   -2.2537  -37.4793   55.0589 C   0  0  0  0  0  0  0  0  0  0  0  0
   -2.6376  -35.9171   52.2565 C   0  0  0  0  0  0  0  0  0  0  0  0
   -3.4220  -35.0866   51.2818 C   0  0  0  0  0  0  0  0  0  0  0  0
   -2.3064  -33.6890   49.8736 C   0  0  0  0  0  0  0  0  0  0  0  0
   -3.0712  -32.5633   50.4870 C   0  0  0  0  0  0  0  0  0  0  0  0
   -0.0673  -37.7323   63.0294 C   0  0  1  0  0  0  0  0  0  0  0  0
    0.1493  -38.8237   62.0993 N   0  0  0  0  0  4  0  0  0  0  0  0
   -1.0789  -37.0333   60.9535 N   0  0  0  0  0  4  0  0  0  0  0  0
   -0.3570  -37.8836   60.3609 N   0  0  0  0  0  0  0  0  0  0  0  0
   -0.5887  -37.8966   59.0016 N   0  0  0  0  0  0  0  0  0  0  0  0
   -2.3682  -31.3069   50.1914 N   0  0  0  0  0  0  0  0  0  0  0  0
   -1.4952  -31.2630   49.0923 N   0  0  0  0  0  0  0  0  0  0  0  0
   -0.7525  -30.2740   48.8793 N   0  0  0  0  0  0  0  0  0  0  0  0
    0.3351  -39.0776   64.9162 O   0  0  0  0  0  0  0  0  0  0  0  0
   -1.7914  -40.5212   64.4537 O   0  0  0  0  0  0  0  0  0  0  0  0
   -3.3280  -36.1588   53.4039 O   0  0  0  0  0  0  0  0  0  0  0  0
   -2.8527  -34.9293   50.0441 O   0  0  0  0  0  0  0  0  0  0  0  0
   -0.6114  -29.5475   49.6084 H   0  0  0  0  0  0  0  0  0  0  0  0
 17  1  1  6
 19  1  1  0
  2  7  2  0
 10  2  1  0
  4  3  1  0
  3 18  1  0
  5  4  1  0
  4 26  1  1
 17  5  1  0
  5 25  1  6
  6  7  1  0
 12  6  2  0
  7  8  1  0
  8  9  1  0
  8 21  2  0
  9 19  1  0
 11 10  2  0
 11 12  1  0
 27 11  1  0
 14 13  1  0
 13 27  1  0
 28 14  1  0
 15 16  1  0
 15 28  1  0
 16 22  1  0
 17 18  1  0
 19 20  2  0
 20 21  1  0
 22 23  1  0
 23 24  2  0
 24 29  1  0
M  CHG  2  18   1  19   1
M  END
$$$$
