
     RDKit          3D

 29 31  0  0  0  0  0  0  0  0999 V2000
   -0.4974  -39.2519   61.8933 C   0  0  0  0  0  0  0  0  0  0  0  0
   -0.5563  -38.5002   56.1919 C   0  0  0  0  0  0  0  0  0  0  0  0
   -0.7169  -37.7047   64.4297 C   0  0  0  0  0  0  0  0  0  0  0  0
   -0.7607  -39.1403   64.8318 C   0  0  2  0  0  0  0  0  0  0  0  0
   -1.8291  -39.7248   63.9423 C   0  0  2  0  0  0  0  0  0  0  0  0
   -1.2593  -36.3020   56.5568 C   0  0  0  0  0  0  0  0  0  0  0  0
   -0.8163  -37.4930   57.0838 C   0  0  0  0  0  0  0  0  0  0  0  0
   -0.6297  -37.6848   58.5223 C   0  0  0  0  0  0  0  0  0  0  0  0
   -0.8232  -38.8877   59.3380 C   0  0  0  0  0  0  0  0  0  0  0  0
   -0.7289  -38.3384   54.8124 C   0  0  0  0  0  0  0  0  0  0  0  0
   -1.1701  -37.1513   54.2767 C   0  0  0  0  0  0  0  0  0  0  0  0
   -1.4341  -36.1236   55.2065 C   0  0  0  0  0  0  0  0  0  0  0  0
   -1.7172  -35.7235   52.3163 C   0  0  0  0  0  0  0  0  0  0  0  0
   -3.2050  -35.5712   52.1803 C   0  0  0  0  0  0  0  0  0  0  0  0
   -4.4149  -34.5364   50.5537 C   0  0  0  0  0  0  0  0  0  0  0  0
   -3.7721  -33.6453   49.5433 C   0  0  0  0  0  0  0  0  0  0  0  0
   -1.7187  -38.8749   62.6999 C   0  0  1  0  0  0  0  0  0  0  0  0
   -1.4977  -37.5392   63.2195 N   0  0  0  0  0  4  0  0  0  0  0  0
   -0.4833  -38.4563   60.6701 N   0  0  0  0  0  4  0  0  0  0  0  0
   -0.1589  -37.2371   60.6105 N   0  0  0  0  0  0  0  0  0  0  0  0
   -0.2386  -36.7462   59.3244 N   0  0  0  0  0  0  0  0  0  0  0  0
   -4.2269  -34.0527   48.2063 N   0  0  0  0  0  0  0  0  0  0  0  0
   -5.4215  -34.7823   48.0918 N   0  0  0  0  0  0  0  0  0  0  0  0
   -5.8827  -35.1207   46.9747 N   0  0  0  0  0  0  0  0  0  0  0  0
   -3.0646  -39.5101   64.5210 O   0  0  0  0  0  0  0  0  0  0  0  0
   -1.0584  -39.3319   66.1833 O   0  0  0  0  0  0  0  0  0  0  0  0
   -1.3708  -36.8741   52.9549 O   0  0  0  0  0  0  0  0  0  0  0  0
   -3.6939  -35.6433   50.9010 O   0  0  0  0  0  0  0  0  0  0  0  0
   -5.5803  -34.6384   46.1056 H   0  0  0  0  0  0  0  0  0  0  0  0
 17  1  1  6
 19  1  1  0
  2  7  2  0
 10  2  1  0
  4  3  1  0
  3 18  1  0
  5  4  1  0
  4 26  1  1
 17  5  1  0
  5 25  1  1
  6  7  1  0
 12  6  2  0
  7  8  1  0
  8  9  1  0
  8 21  2  0
  9 19  1  0
 11 10  2  0
 11 12  1  0
 27 11  1  0
 14 13  1  0
 13 27  1  0
 28 14  1  0
 15 16  1  0
 15 28  1  0
 16 22  1  0
 17 18  1  0
 19 20  2  0
 20 21  1  0
 22 23  1  0
 23 24  2  0
 24 29  1  0
M  CHG  2  18   1  19   1
M  END
$$$$
