
     RDKit          3D

 29 31  0  0  0  0  0  0  0  0999 V2000
   -0.5948  -39.5743   61.6956 C   0  0  0  0  0  0  0  0  0  0  0  0
   -0.7643  -35.7966   56.8284 C   0  0  0  0  0  0  0  0  0  0  0  0
   -0.4139  -38.8151   64.5708 C   0  0  0  0  0  0  0  0  0  0  0  0
   -0.7496  -40.2682   64.5611 C   0  0  2  0  0  0  0  0  0  0  0  0
   -1.9410  -40.3504   63.6401 C   0  0  2  0  0  0  0  0  0  0  0  0
   -2.3283  -37.5213   56.6312 C   0  0  0  0  0  0  0  0  0  0  0  0
   -1.3476  -36.9089   57.3764 C   0  0  0  0  0  0  0  0  0  0  0  0
   -0.9402  -37.4121   58.6886 C   0  0  0  0  0  0  0  0  0  0  0  0
   -1.3064  -38.6595   59.3664 C   0  0  0  0  0  0  0  0  0  0  0  0
   -1.1380  -35.2990   55.5747 C   0  0  0  0  0  0  0  0  0  0  0  0
   -2.1181  -35.9040   54.8233 C   0  0  0  0  0  0  0  0  0  0  0  0
   -2.7094  -37.0479   55.3997 C   0  0  0  0  0  0  0  0  0  0  0  0
   -3.0693  -36.2190   52.5481 C   0  0  0  0  0  0  0  0  0  0  0  0
   -2.3022  -35.9811   51.2792 C   0  0  0  0  0  0  0  0  0  0  0  0
   -4.2267  -36.3482   50.1208 C   0  0  0  0  0  0  0  0  0  0  0  0
   -5.4262  -35.6425   50.6606 C   0  0  0  0  0  0  0  0  0  0  0  0
   -1.6866  -39.2161   62.6774 C   0  0  1  0  0  0  0  0  0  0  0  0
   -1.1742  -38.1576   63.5261 N   0  0  0  0  0  4  0  0  0  0  0  0
   -0.5962  -38.5901   60.6182 N   0  0  0  0  0  4  0  0  0  0  0  0
    0.0489  -37.5044   60.6369 N   0  0  0  0  0  0  0  0  0  0  0  0
   -0.1413  -36.7736   59.4831 N   0  0  0  0  0  0  0  0  0  0  0  0
   -5.9955  -36.4543   51.7454 N   0  0  0  0  0  0  0  0  0  0  0  0
   -7.2081  -36.0503   52.3274 N   0  0  0  0  0  0  0  0  0  0  0  0
   -7.7379  -36.6970   53.2634 N   0  0  0  0  0  0  0  0  0  0  0  0
   -3.0871  -40.0757   64.3601 O   0  0  0  0  0  0  0  0  0  0  0  0
   -1.0448  -40.7807   65.8269 O   0  0  0  0  0  0  0  0  0  0  0  0
   -2.5691  -35.5100   53.5962 O   0  0  0  0  0  0  0  0  0  0  0  0
   -3.0567  -35.6462   50.1841 O   0  0  0  0  0  0  0  0  0  0  0  0
   -7.2841  -37.5503   53.6445 H   0  0  0  0  0  0  0  0  0  0  0  0
 17  1  1  6
 19  1  1  0
  2  7  2  0
 10  2  1  0
  4  3  1  0
  3 18  1  0
  5  4  1  0
  4 26  1  1
 17  5  1  0
  5 25  1  1
  6  7  1  0
 12  6  2  0
  7  8  1  0
  8  9  1  0
  8 21  2  0
  9 19  1  0
 11 10  2  0
 11 12  1  0
 27 11  1  0
 14 13  1  0
 13 27  1  0
 28 14  1  0
 15 16  1  0
 15 28  1  0
 16 22  1  0
 17 18  1  0
 19 20  2  0
 20 21  1  0
 22 23  1  0
 23 24  2  0
 24 29  1  0
M  CHG  2  18   1  19   1
M  END
$$$$
