
     RDKit          3D

 29 31  0  0  0  0  0  0  0  0999 V2000
   -0.8205  -38.6288   61.5173 C   0  0  0  0  0  0  0  0  0  0  0  0
   -3.0174  -35.8954   56.4460 C   0  0  0  0  0  0  0  0  0  0  0  0
    0.4982  -38.3891   64.1780 C   0  0  0  0  0  0  0  0  0  0  0  0
   -0.4053  -39.5709   64.2844 C   0  0  2  0  0  0  0  0  0  0  0  0
   -1.7323  -39.0474   63.7953 C   0  0  2  0  0  0  0  0  0  0  0  0
   -1.2577  -37.3498   55.9482 C   0  0  0  0  0  0  0  0  0  0  0  0
   -2.0734  -36.7799   56.8980 C   0  0  0  0  0  0  0  0  0  0  0  0
   -1.9471  -37.0950   58.3213 C   0  0  0  0  0  0  0  0  0  0  0  0
   -1.0627  -38.0530   58.9918 C   0  0  0  0  0  0  0  0  0  0  0  0
   -3.1547  -35.5791   55.0895 C   0  0  0  0  0  0  0  0  0  0  0  0
   -2.3446  -36.1447   54.1331 C   0  0  0  0  0  0  0  0  0  0  0  0
   -1.3774  -37.0528   54.6128 C   0  0  0  0  0  0  0  0  0  0  0  0
   -2.9431  -36.6312   51.7696 C   0  0  0  0  0  0  0  0  0  0  0  0
   -3.5572  -35.7470   50.7226 C   0  0  0  0  0  0  0  0  0  0  0  0
   -4.7838  -37.5604   50.0999 C   0  0  0  0  0  0  0  0  0  0  0  0
   -6.0479  -37.3993   50.8772 C   0  0  0  0  0  0  0  0  0  0  0  0
   -1.3182  -37.9948   62.7959 C   0  0  1  0  0  0  0  0  0  0  0  0
   -0.1834  -37.3515   63.4293 N   0  0  0  0  0  4  0  0  0  0  0  0
   -1.3979  -37.9106   60.3859 N   0  0  0  0  0  4  0  0  0  0  0  0
   -2.3026  -37.0340   60.4783 N   0  0  0  0  0  0  0  0  0  0  0  0
   -2.6529  -36.5251   59.2455 N   0  0  0  0  0  0  0  0  0  0  0  0
   -6.3861  -38.6917   51.4900 N   0  0  0  0  0  0  0  0  0  0  0  0
   -5.8508  -39.0029   52.7505 N   0  0  0  0  0  0  0  0  0  0  0  0
   -5.6878  -38.1251   53.6325 N   0  0  0  0  0  0  0  0  0  0  0  0
   -2.3888  -38.4331   64.8437 O   0  0  0  0  0  0  0  0  0  0  0  0
   -0.5033  -40.0829   65.5807 O   0  0  0  0  0  0  0  0  0  0  0  0
   -2.3868  -35.9193   52.7871 O   0  0  0  0  0  0  0  0  0  0  0  0
   -4.1927  -36.3972   49.6958 O   0  0  0  0  0  0  0  0  0  0  0  0
   -6.0082  -37.1490   53.4778 H   0  0  0  0  0  0  0  0  0  0  0  0
 17  1  1  6
 19  1  1  0
  2  7  2  0
 10  2  1  0
  4  3  1  0
  3 18  1  0
  5  4  1  0
  4 26  1  1
 17  5  1  0
  5 25  1  1
  6  7  1  0
 12  6  2  0
  7  8  1  0
  8  9  1  0
  8 21  2  0
  9 19  1  0
 11 10  2  0
 11 12  1  0
 27 11  1  0
 14 13  1  0
 13 27  1  0
 28 14  1  0
 15 16  1  0
 15 28  1  0
 16 22  1  0
 17 18  1  0
 19 20  2  0
 20 21  1  0
 22 23  1  0
 23 24  2  0
 24 29  1  0
M  CHG  2  18   1  19   1
M  END
$$$$
