
     RDKit          3D

 29 31  0  0  0  0  0  0  0  0999 V2000
   -0.4027  -39.0386   61.6738 C   0  0  0  0  0  0  0  0  0  0  0  0
   -0.8933  -35.4010   56.7313 C   0  0  0  0  0  0  0  0  0  0  0  0
    0.2062  -38.7750   64.5782 C   0  0  0  0  0  0  0  0  0  0  0  0
   -0.4298  -40.1151   64.4229 C   0  0  2  0  0  0  0  0  0  0  0  0
   -1.6931  -39.8204   63.6536 C   0  0  2  0  0  0  0  0  0  0  0  0
   -2.1676  -37.3435   56.4809 C   0  0  0  0  0  0  0  0  0  0  0  0
   -1.3484  -36.5740   57.2741 C   0  0  0  0  0  0  0  0  0  0  0  0
   -0.9755  -36.9790   58.6298 C   0  0  0  0  0  0  0  0  0  0  0  0
   -1.0596  -38.2960   59.2686 C   0  0  0  0  0  0  0  0  0  0  0  0
   -1.2368  -34.9952   55.4365 C   0  0  0  0  0  0  0  0  0  0  0  0
   -2.0559  -35.7574   54.6370 C   0  0  0  0  0  0  0  0  0  0  0  0
   -2.5165  -36.9621   55.2086 C   0  0  0  0  0  0  0  0  0  0  0  0
   -3.6394  -34.9811   52.8845 C   0  0  0  0  0  0  0  0  0  0  0  0
   -4.4966  -36.0580   52.2841 C   0  0  0  0  0  0  0  0  0  0  0  0
   -4.4400  -35.8601   50.0173 C   0  0  0  0  0  0  0  0  0  0  0  0
   -5.9053  -35.5888   49.9301 C   0  0  0  0  0  0  0  0  0  0  0  0
   -1.2957  -38.6257   62.8212 C   0  0  1  0  0  0  0  0  0  0  0  0
   -0.4923  -37.8301   63.7292 N   0  0  0  0  0  4  0  0  0  0  0  0
   -0.5493  -38.0656   60.5963 N   0  0  0  0  0  4  0  0  0  0  0  0
   -0.2368  -36.8450   60.6838 N   0  0  0  0  0  0  0  0  0  0  0  0
   -0.4842  -36.1656   59.5097 N   0  0  0  0  0  0  0  0  0  0  0  0
   -6.1060  -34.1351   49.8493 N   0  0  0  0  0  0  0  0  0  0  0  0
   -6.0483  -33.5135   48.5912 N   0  0  0  0  0  0  0  0  0  0  0  0
   -4.9545  -33.2200   48.0505 N   0  0  0  0  0  0  0  0  0  0  0  0
   -2.6814  -39.4380   64.5393 O   0  0  0  0  0  0  0  0  0  0  0  0
   -0.7061  -40.7454   65.6388 O   0  0  0  0  0  0  0  0  0  0  0  0
   -2.4625  -35.4649   53.3668 O   0  0  0  0  0  0  0  0  0  0  0  0
   -4.0430  -36.5875   51.1031 O   0  0  0  0  0  0  0  0  0  0  0  0
   -4.0672  -33.6519   48.3753 H   0  0  0  0  0  0  0  0  0  0  0  0
 17  1  1  6
 19  1  1  0
  2  7  2  0
 10  2  1  0
  4  3  1  0
  3 18  1  0
  5  4  1  0
  4 26  1  1
 17  5  1  0
  5 25  1  1
  6  7  1  0
 12  6  2  0
  7  8  1  0
  8  9  1  0
  8 21  2  0
  9 19  1  0
 11 10  2  0
 11 12  1  0
 27 11  1  0
 14 13  1  0
 13 27  1  0
 28 14  1  0
 15 16  1  0
 15 28  1  0
 16 22  1  0
 17 18  1  0
 19 20  2  0
 20 21  1  0
 22 23  1  0
 23 24  2  0
 24 29  1  0
M  CHG  2  18   1  19   1
M  END
$$$$
