
     RDKit          3D

 29 31  0  0  0  0  0  0  0  0999 V2000
   23.4416  -48.1892   27.5631 C   0  0  0  0  0  0  0  0  0  0  0  0
   24.3867  -45.8552   33.1687 C   0  0  0  0  0  0  0  0  0  0  0  0
   20.8701  -47.4304   26.2643 C   0  0  0  0  0  0  0  0  0  0  0  0
   21.5541  -48.3371   25.2977 C   0  0  2  0  0  0  0  0  0  0  0  0
   22.9332  -47.7410   25.1680 C   0  0  2  0  0  0  0  0  0  0  0  0
   24.9442  -48.1236   33.1156 C   0  0  0  0  0  0  0  0  0  0  0  0
   24.5399  -47.0004   32.4321 C   0  0  0  0  0  0  0  0  0  0  0  0
   24.2833  -47.0174   30.9916 C   0  0  0  0  0  0  0  0  0  0  0  0
   23.9033  -48.1356   30.1229 C   0  0  0  0  0  0  0  0  0  0  0  0
   24.6257  -45.8170   34.5473 C   0  0  0  0  0  0  0  0  0  0  0  0
   25.0313  -46.9345   35.2385 C   0  0  0  0  0  0  0  0  0  0  0  0
   25.1845  -48.1060   34.4675 C   0  0  0  0  0  0  0  0  0  0  0  0
   26.4733  -47.0276   37.2615 C   0  0  0  0  0  0  0  0  0  0  0  0
   26.7126  -45.7434   38.0021 C   0  0  0  0  0  0  0  0  0  0  0  0
   26.1059  -44.2964   39.6509 C   0  0  0  0  0  0  0  0  0  0  0  0
   26.9187  -44.5152   40.8837 C   0  0  0  0  0  0  0  0  0  0  0  0
   23.1509  -47.1259   26.5291 C   0  0  1  0  0  0  0  0  0  0  0  0
   21.8600  -46.5499   26.8529 N   0  0  0  0  0  4  0  0  0  0  0  0
   23.7957  -47.5340   28.8179 N   0  0  0  0  0  4  0  0  0  0  0  0
   24.0652  -46.3057   28.9353 N   0  0  0  0  0  0  0  0  0  0  0  0
   24.3633  -45.9670   30.2383 N   0  0  0  0  0  0  0  0  0  0  0  0
   26.1082  -44.1359   42.0496 N   0  0  0  0  0  0  0  0  0  0  0  0
   26.7622  -43.7587   43.2338 N   0  0  0  0  0  0  0  0  0  0  0  0
   27.9227  -44.1551   43.5009 N   0  0  0  0  0  0  0  0  0  0  0  0
   22.9020  -46.7339   24.2234 O   0  0  0  0  0  0  0  0  0  0  0  0
   20.9126  -48.4177   24.0591 O   0  0  0  0  0  0  0  0  0  0  0  0
   25.2986  -47.0182   36.5748 O   0  0  0  0  0  0  0  0  0  0  0  0
   25.7800  -45.4265   38.9563 O   0  0  0  0  0  0  0  0  0  0  0  0
   28.5926  -44.3904   42.7426 H   0  0  0  0  0  0  0  0  0  0  0  0
 17  1  1  1
 19  1  1  0
  2  7  2  0
 10  2  1  0
  4  3  1  0
  3 18  1  0
  5  4  1  0
  4 26  1  6
 17  5  1  0
  5 25  1  6
  6  7  1  0
 12  6  2  0
  7  8  1  0
  8  9  1  0
  8 21  2  0
  9 19  1  0
 11 10  2  0
 11 12  1  0
 27 11  1  0
 14 13  1  0
 13 27  1  0
 28 14  1  0
 15 16  1  0
 15 28  1  0
 16 22  1  0
 17 18  1  0
 19 20  2  0
 20 21  1  0
 22 23  1  0
 23 24  2  0
 24 29  1  0
M  CHG  2  18   1  19   1
M  END
$$$$
