
     RDKit          3D

 29 31  0  0  0  0  0  0  0  0999 V2000
   -0.5121  -39.7395   61.1331 C   0  0  0  0  0  0  0  0  0  0  0  0
   -2.2988  -38.1752   56.0184 C   0  0  0  0  0  0  0  0  0  0  0  0
   -0.0530  -38.3690   63.8073 C   0  0  0  0  0  0  0  0  0  0  0  0
   -0.7514  -39.5462   64.4528 C   0  0  2  0  0  0  0  0  0  0  0  0
   -1.6023  -40.1435   63.3556 C   0  0  2  0  0  0  0  0  0  0  0  0
   -0.9457  -36.2805   55.9934 C   0  0  0  0  0  0  0  0  0  0  0  0
   -1.3734  -37.4026   56.6580 C   0  0  0  0  0  0  0  0  0  0  0  0
   -0.8631  -37.7568   57.9917 C   0  0  0  0  0  0  0  0  0  0  0  0
   -1.2639  -38.9258   58.7948 C   0  0  0  0  0  0  0  0  0  0  0  0
   -2.8148  -37.9024   54.7776 C   0  0  0  0  0  0  0  0  0  0  0  0
   -2.3689  -36.7496   54.1053 C   0  0  0  0  0  0  0  0  0  0  0  0
   -1.4342  -35.9486   54.7276 C   0  0  0  0  0  0  0  0  0  0  0  0
   -3.3650  -37.3440   51.8926 C   0  0  0  0  0  0  0  0  0  0  0  0
   -4.0057  -36.6388   50.7476 C   0  0  0  0  0  0  0  0  0  0  0  0
   -5.1214  -34.6348   50.2602 C   0  0  0  0  0  0  0  0  0  0  0  0
   -4.4233  -33.6743   49.2654 C   0  0  0  0  0  0  0  0  0  0  0  0
   -1.4519  -39.2365   62.1748 C   0  0  1  0  0  0  0  0  0  0  0  0
   -0.8774  -37.9818   62.6805 N   0  0  0  0  0  4  0  0  0  0  0  0
   -0.4845  -38.8148   59.9980 N   0  0  0  0  0  4  0  0  0  0  0  0
    0.2258  -37.7773   59.8969 N   0  0  0  0  0  0  0  0  0  0  0  0
    0.0109  -37.1212   58.6869 N   0  0  0  0  0  0  0  0  0  0  0  0
   -3.5279  -32.8589   50.0344 N   0  0  0  0  0  0  0  0  0  0  0  0
   -2.8177  -31.8118   49.4336 N   0  0  0  0  0  0  0  0  0  0  0  0
   -2.1521  -31.0406   50.1622 N   0  0  0  0  0  0  0  0  0  0  0  0
   -2.9411  -40.0674   63.7785 O   0  0  0  0  0  0  0  0  0  0  0  0
   -1.5085  -39.1337   65.5374 O   0  0  0  0  0  0  0  0  0  0  0  0
   -2.9229  -36.5404   52.8839 O   0  0  0  0  0  0  0  0  0  0  0  0
   -4.0967  -35.2735   50.9124 O   0  0  0  0  0  0  0  0  0  0  0  0
   -2.1031  -31.1324   51.1998 H   0  0  0  0  0  0  0  0  0  0  0  0
 17  1  1  6
  1 19  1  6
  2  7  2  0
 10  2  1  0
  4  3  1  0
  3 18  1  6
  5  4  1  0
  4 26  1  1
 17  5  1  0
  5 25  1  1
  6  7  1  0
 12  6  2  0
  7  8  1  0
  9  8  1  1
  8 21  2  0
  9 19  1  0
 11 10  2  0
 11 12  1  0
 27 11  1  0
 14 13  1  0
 13 27  1  6
 14 28  1  6
 15 16  1  0
 15 28  1  6
 16 22  1  6
 18 17  1  6
 19 20  2  0
 20 21  1  0
 22 23  1  0
 23 24  2  0
 24 29  1  0
M  CHG  2  18   1  19   1
M  END
$$$$
