
     RDKit          3D

 29 31  0  0  0  0  0  0  0  0999 V2000
   -0.4013  -38.8413   61.4119 C   0  0  0  0  0  0  0  0  0  0  0  0
   -1.5691  -34.3362   57.3673 C   0  0  0  0  0  0  0  0  0  0  0  0
   -0.6334  -38.2802   64.3286 C   0  0  0  0  0  0  0  0  0  0  0  0
   -0.4540  -39.7567   64.2184 C   0  0  2  0  0  0  0  0  0  0  0  0
   -1.4988  -40.1661   63.2109 C   0  0  2  0  0  0  0  0  0  0  0  0
   -2.6682  -36.3168   56.7939 C   0  0  0  0  0  0  0  0  0  0  0  0
   -1.8322  -35.6490   57.6586 C   0  0  0  0  0  0  0  0  0  0  0  0
   -1.2480  -36.2988   58.8322 C   0  0  0  0  0  0  0  0  0  0  0  0
   -1.4288  -37.6656   59.3311 C   0  0  0  0  0  0  0  0  0  0  0  0
   -2.1164  -33.6956   56.2496 C   0  0  0  0  0  0  0  0  0  0  0  0
   -2.9539  -34.3548   55.3807 C   0  0  0  0  0  0  0  0  0  0  0  0
   -3.2155  -35.7055   55.6928 C   0  0  0  0  0  0  0  0  0  0  0  0
   -4.0806  -34.4361   53.1660 C   0  0  0  0  0  0  0  0  0  0  0  0
   -3.0464  -34.7222   52.1155 C   0  0  0  0  0  0  0  0  0  0  0  0
   -4.3421  -35.0026   50.2653 C   0  0  0  0  0  0  0  0  0  0  0  0
   -5.1953  -34.2506   49.2985 C   0  0  0  0  0  0  0  0  0  0  0  0
   -1.5975  -38.9445   62.3300 C   0  0  1  0  0  0  0  0  0  0  0  0
   -1.5187  -37.8412   63.2678 N   0  0  0  0  0  4  0  0  0  0  0  0
   -0.6023  -37.7116   60.5104 N   0  0  0  0  0  4  0  0  0  0  0  0
   -0.0588  -36.5796   60.6459 N   0  0  0  0  0  0  0  0  0  0  0  0
   -0.4319  -35.7072   59.6453 N   0  0  0  0  0  0  0  0  0  0  0  0
   -4.4072  -33.1387   48.7484 N   0  0  0  0  0  0  0  0  0  0  0  0
   -3.8537  -33.2726   47.4647 N   0  0  0  0  0  0  0  0  0  0  0  0
   -3.3377  -32.2987   46.8644 N   0  0  0  0  0  0  0  0  0  0  0  0
   -2.7045  -40.3466   63.8598 O   0  0  0  0  0  0  0  0  0  0  0  0
   -0.6201  -40.4306   65.4309 O   0  0  0  0  0  0  0  0  0  0  0  0
   -3.5491  -33.8372   54.2662 O   0  0  0  0  0  0  0  0  0  0  0  0
   -3.3447  -34.2775   50.8529 O   0  0  0  0  0  0  0  0  0  0  0  0
   -3.3416  -31.3498   47.2875 H   0  0  0  0  0  0  0  0  0  0  0  0
 17  1  1  6
 19  1  1  0
  2  7  2  0
 10  2  1  0
  4  3  1  0
  3 18  1  0
  5  4  1  0
  4 26  1  1
 17  5  1  0
  5 25  1  1
  6  7  1  0
 12  6  2  0
  7  8  1  0
  8  9  1  0
  8 21  2  0
  9 19  1  0
 11 10  2  0
 11 12  1  0
 27 11  1  0
 14 13  1  0
 13 27  1  0
 28 14  1  0
 15 16  1  0
 15 28  1  0
 16 22  1  0
 17 18  1  0
 19 20  2  0
 20 21  1  0
 22 23  1  0
 23 24  2  0
 24 29  1  0
M  CHG  2  18   1  19   1
M  END
$$$$
