
     RDKit          3D

 29 31  0  0  0  0  0  0  0  0999 V2000
   -0.3360  -37.7846   62.3888 C   0  0  0  0  0  0  0  0  0  0  0  0
   -0.9962  -36.5511   56.4145 C   0  0  0  0  0  0  0  0  0  0  0  0
   -2.9260  -39.0886   63.0725 C   0  0  0  0  0  0  0  0  0  0  0  0
   -2.3040  -38.7254   64.3784 C   0  0  2  0  0  0  0  0  0  0  0  0
   -0.9122  -39.2978   64.2793 C   0  0  2  0  0  0  0  0  0  0  0  0
   -3.0880  -36.6789   57.4479 C   0  0  0  0  0  0  0  0  0  0  0  0
   -1.7235  -36.8255   57.5430 C   0  0  0  0  0  0  0  0  0  0  0  0
   -1.0721  -37.2528   58.7816 C   0  0  0  0  0  0  0  0  0  0  0  0
   -1.4763  -37.0346   60.1739 C   0  0  0  0  0  0  0  0  0  0  0  0
   -1.5990  -36.1421   55.2194 C   0  0  0  0  0  0  0  0  0  0  0  0
   -2.9620  -35.9918   55.1155 C   0  0  0  0  0  0  0  0  0  0  0  0
   -3.6978  -36.2780   56.2847 C   0  0  0  0  0  0  0  0  0  0  0  0
   -3.6234  -36.0227   52.7191 C   0  0  0  0  0  0  0  0  0  0  0  0
   -4.8534  -36.7948   52.3373 C   0  0  0  0  0  0  0  0  0  0  0  0
   -7.0053  -36.3211   51.7668 C   0  0  0  0  0  0  0  0  0  0  0  0
   -7.7398  -37.6185   51.6929 C   0  0  0  0  0  0  0  0  0  0  0  0
   -0.6290  -39.2094   62.7993 C   0  0  1  0  0  0  0  0  0  0  0  0
   -1.8895  -39.5845   62.1883 N   0  0  0  0  0  4  0  0  0  0  0  0
   -0.4426  -37.6872   60.9367 N   0  0  0  0  0  4  0  0  0  0  0  0
    0.3866  -38.1801   60.1214 N   0  0  0  0  0  0  0  0  0  0  0  0
    0.0300  -37.9322   58.8126 N   0  0  0  0  0  0  0  0  0  0  0  0
   -8.9757  -37.4997   52.4795 N   0  0  0  0  0  0  0  0  0  0  0  0
  -10.2093  -37.5311   51.8091 N   0  0  0  0  0  0  0  0  0  0  0  0
  -11.2912  -37.3191   52.4090 N   0  0  0  0  0  0  0  0  0  0  0  0
   -0.9447  -40.6283   64.6483 O   0  0  0  0  0  0  0  0  0  0  0  0
   -2.9898  -39.2356   65.4837 O   0  0  0  0  0  0  0  0  0  0  0  0
   -3.6600  -35.5961   54.0107 O   0  0  0  0  0  0  0  0  0  0  0  0
   -6.0455  -36.2462   52.7357 O   0  0  0  0  0  0  0  0  0  0  0  0
  -11.2995  -36.9006   53.3598 H   0  0  0  0  0  0  0  0  0  0  0  0
 17  1  1  1
 19  1  1  0
  2  7  2  0
 10  2  1  0
  4  3  1  0
  3 18  1  0
  5  4  1  0
  4 26  1  1
 17  5  1  0
  5 25  1  6
  6  7  1  0
 12  6  2  0
  7  8  1  0
  8  9  1  0
  8 21  2  0
  9 19  1  0
 11 10  2  0
 11 12  1  0
 27 11  1  0
 14 13  1  0
 13 27  1  0
 28 14  1  0
 15 16  1  0
 15 28  1  0
 16 22  1  0
 17 18  1  0
 19 20  2  0
 20 21  1  0
 22 23  1  0
 23 24  2  0
 24 29  1  0
M  CHG  2  18   1  19   1
M  END
$$$$
