
     RDKit          3D

 29 31  0  0  0  0  0  0  0  0999 V2000
   -0.8330  -39.0600   61.2472 C   0  0  0  0  0  0  0  0  0  0  0  0
   -2.3536  -36.7384   56.2098 C   0  0  0  0  0  0  0  0  0  0  0  0
    0.8132  -38.9516   63.7279 C   0  0  0  0  0  0  0  0  0  0  0  0
    0.1518  -40.2883   63.7448 C   0  0  2  0  0  0  0  0  0  0  0  0
   -1.3038  -39.9661   63.5173 C   0  0  2  0  0  0  0  0  0  0  0  0
   -1.8130  -34.6425   57.0900 C   0  0  0  0  0  0  0  0  0  0  0  0
   -1.9747  -35.9931   57.2954 C   0  0  0  0  0  0  0  0  0  0  0  0
   -1.7564  -36.6120   58.6032 C   0  0  0  0  0  0  0  0  0  0  0  0
   -1.2302  -37.9401   58.9328 C   0  0  0  0  0  0  0  0  0  0  0  0
   -2.5688  -36.1666   54.9505 C   0  0  0  0  0  0  0  0  0  0  0  0
   -2.4083  -34.8178   54.7356 C   0  0  0  0  0  0  0  0  0  0  0  0
   -2.0185  -34.0632   55.8620 C   0  0  0  0  0  0  0  0  0  0  0  0
   -2.9252  -34.5864   52.3148 C   0  0  0  0  0  0  0  0  0  0  0  0
   -3.1950  -33.4542   51.3659 C   0  0  0  0  0  0  0  0  0  0  0  0
   -2.5351  -34.4428   49.4249 C   0  0  0  0  0  0  0  0  0  0  0  0
   -2.7376  -35.8993   49.1680 C   0  0  0  0  0  0  0  0  0  0  0  0
   -1.2321  -38.7222   62.6653 C   0  0  1  0  0  0  0  0  0  0  0  0
   -0.1413  -37.9691   63.2533 N   0  0  0  0  0  4  0  0  0  0  0  0
   -1.2516  -37.9690   60.3733 N   0  0  0  0  0  4  0  0  0  0  0  0
   -1.7055  -36.8610   60.7753 N   0  0  0  0  0  0  0  0  0  0  0  0
   -2.0183  -36.0226   59.7262 N   0  0  0  0  0  0  0  0  0  0  0  0
   -1.6971  -36.6482   49.8867 N   0  0  0  0  0  0  0  0  0  0  0  0
   -0.3822  -36.1551   49.8796 N   0  0  0  0  0  0  0  0  0  0  0  0
    0.4916  -36.6188   49.1072 N   0  0  0  0  0  0  0  0  0  0  0  0
   -1.8888  -39.6453   64.7265 O   0  0  0  0  0  0  0  0  0  0  0  0
    0.3406  -40.9887   64.9389 O   0  0  0  0  0  0  0  0  0  0  0  0
   -2.5834  -34.1501   53.5576 O   0  0  0  0  0  0  0  0  0  0  0  0
   -3.5505  -33.8195   50.0928 O   0  0  0  0  0  0  0  0  0  0  0  0
    0.2253  -37.2117   48.2968 H   0  0  0  0  0  0  0  0  0  0  0  0
 17  1  1  6
 19  1  1  0
  2  7  2  0
 10  2  1  0
  4  3  1  0
  3 18  1  0
  5  4  1  0
  4 26  1  1
 17  5  1  0
  5 25  1  1
  6  7  1  0
 12  6  2  0
  7  8  1  0
  8  9  1  0
  8 21  2  0
  9 19  1  0
 11 10  2  0
 11 12  1  0
 27 11  1  0
 14 13  1  0
 13 27  1  0
 28 14  1  0
 15 16  1  0
 15 28  1  0
 16 22  1  0
 17 18  1  0
 19 20  2  0
 20 21  1  0
 22 23  1  0
 23 24  2  0
 24 29  1  0
M  CHG  2  18   1  19   1
M  END
$$$$
