
     RDKit          3D

 29 31  0  0  0  0  0  0  0  0999 V2000
   -0.3394  -38.8010   61.7462 C   0  0  0  0  0  0  0  0  0  0  0  0
   -1.2614  -35.4507   57.2102 C   0  0  0  0  0  0  0  0  0  0  0  0
    0.2272  -39.2017   64.6434 C   0  0  0  0  0  0  0  0  0  0  0  0
   -0.6654  -40.3301   64.2506 C   0  0  2  0  0  0  0  0  0  0  0  0
   -1.8189  -39.6458   63.5610 C   0  0  2  0  0  0  0  0  0  0  0  0
   -3.2314  -36.6164   56.7414 C   0  0  0  0  0  0  0  0  0  0  0  0
   -2.1179  -36.4695   57.5358 C   0  0  0  0  0  0  0  0  0  0  0  0
   -1.8522  -37.3516   58.6725 C   0  0  0  0  0  0  0  0  0  0  0  0
   -0.8294  -37.2473   59.7178 C   0  0  0  0  0  0  0  0  0  0  0  0
   -1.4958  -34.5962   56.1267 C   0  0  0  0  0  0  0  0  0  0  0  0
   -2.6066  -34.7349   55.3280 C   0  0  0  0  0  0  0  0  0  0  0  0
   -3.4792  -35.7879   55.6747 C   0  0  0  0  0  0  0  0  0  0  0  0
   -3.2398  -34.2901   52.9654 C   0  0  0  0  0  0  0  0  0  0  0  0
   -2.3805  -33.5553   51.9771 C   0  0  0  0  0  0  0  0  0  0  0  0
   -3.5115  -34.8341   50.4718 C   0  0  0  0  0  0  0  0  0  0  0  0
   -2.8315  -36.1000   50.0677 C   0  0  0  0  0  0  0  0  0  0  0  0
   -1.1613  -38.4280   62.9586 C   0  0  1  0  0  0  0  0  0  0  0  0
   -0.2382  -37.9944   63.9895 N   0  0  0  0  0  4  0  0  0  0  0  0
   -1.0693  -38.4005   60.5478 N   0  0  0  0  0  4  0  0  0  0  0  0
   -2.0465  -39.0329   60.0575 N   0  0  0  0  0  0  0  0  0  0  0  0
   -2.5384  -38.4208   58.9240 N   0  0  0  0  0  0  0  0  0  0  0  0
   -3.3448  -36.5050   48.7514 N   0  0  0  0  0  0  0  0  0  0  0  0
   -3.0885  -35.6814   47.6431 N   0  0  0  0  0  0  0  0  0  0  0  0
   -3.4699  -35.9922   46.4886 N   0  0  0  0  0  0  0  0  0  0  0  0
   -2.7327  -39.2348   64.5114 O   0  0  0  0  0  0  0  0  0  0  0  0
   -1.0998  -41.1001   65.3325 O   0  0  0  0  0  0  0  0  0  0  0  0
   -2.9431  -33.9638   54.2526 O   0  0  0  0  0  0  0  0  0  0  0  0
   -2.6879  -33.7602   50.6563 O   0  0  0  0  0  0  0  0  0  0  0  0
   -4.0278  -36.8534   46.3260 H   0  0  0  0  0  0  0  0  0  0  0  0
 17  1  1  6
 19  1  1  0
  2  7  2  0
 10  2  1  0
  4  3  1  0
  3 18  1  0
  5  4  1  0
  4 26  1  1
 17  5  1  0
  5 25  1  1
  6  7  1  0
 12  6  2  0
  7  8  1  0
  8  9  1  0
  8 21  2  0
  9 19  1  0
 11 10  2  0
 11 12  1  0
 27 11  1  0
 14 13  1  0
 13 27  1  0
 28 14  1  0
 15 16  1  0
 15 28  1  0
 16 22  1  0
 17 18  1  0
 19 20  2  0
 20 21  1  0
 22 23  1  0
 23 24  2  0
 24 29  1  0
M  CHG  2  18   1  19   1
M  END
$$$$
