
     RDKit          3D

 29 31  0  0  0  0  0  0  0  0999 V2000
   -1.6875  -39.4769   61.5427 C   0  0  0  0  0  0  0  0  0  0  0  0
   -2.5503  -34.9477   57.4289 C   0  0  0  0  0  0  0  0  0  0  0  0
    0.5805  -39.0851   63.5285 C   0  0  0  0  0  0  0  0  0  0  0  0
   -0.0153  -40.2228   64.3289 C   0  0  2  0  0  0  0  0  0  0  0  0
   -1.4668  -40.2750   63.9103 C   0  0  2  0  0  0  0  0  0  0  0  0
   -3.0837  -37.0594   56.6058 C   0  0  0  0  0  0  0  0  0  0  0  0
   -2.7028  -36.2821   57.6709 C   0  0  0  0  0  0  0  0  0  0  0  0
   -2.4693  -36.8548   59.0059 C   0  0  0  0  0  0  0  0  0  0  0  0
   -2.1358  -38.2590   59.3042 C   0  0  0  0  0  0  0  0  0  0  0  0
   -2.7513  -34.3509   56.2109 C   0  0  0  0  0  0  0  0  0  0  0  0
   -3.1421  -35.1574   55.1262 C   0  0  0  0  0  0  0  0  0  0  0  0
   -3.3034  -36.5103   55.3403 C   0  0  0  0  0  0  0  0  0  0  0  0
   -3.9262  -34.7989   52.7812 C   0  0  0  0  0  0  0  0  0  0  0  0
   -3.0516  -34.7117   51.5787 C   0  0  0  0  0  0  0  0  0  0  0  0
   -2.4980  -36.6237   50.3394 C   0  0  0  0  0  0  0  0  0  0  0  0
   -1.1302  -37.2420   49.9564 C   0  0  0  0  0  0  0  0  0  0  0  0
   -1.6738  -39.1146   62.9884 C   0  0  1  0  0  0  0  0  0  0  0  0
   -0.5260  -38.2170   63.1800 N   0  0  0  0  0  4  0  0  0  0  0  0
   -2.0119  -38.2986   60.7362 N   0  0  0  0  0  4  0  0  0  0  0  0
   -2.2335  -37.1348   61.1696 N   0  0  0  0  0  0  0  0  0  0  0  0
   -2.5129  -36.2441   60.1355 N   0  0  0  0  0  0  0  0  0  0  0  0
   -0.2033  -36.1542   49.8313 N   0  0  0  0  0  0  0  0  0  0  0  0
    0.2602  -35.7492   48.5731 N   0  0  0  0  0  0  0  0  0  0  0  0
    1.1746  -34.8953   48.5152 N   0  0  0  0  0  0  0  0  0  0  0  0
   -2.2409  -40.0431   65.0611 O   0  0  0  0  0  0  0  0  0  0  0  0
    0.1304  -39.9963   65.6880 O   0  0  0  0  0  0  0  0  0  0  0  0
   -3.3209  -34.5014   53.9513 O   0  0  0  0  0  0  0  0  0  0  0  0
   -2.2284  -35.8035   51.4061 O   0  0  0  0  0  0  0  0  0  0  0  0
    2.0782  -34.9876   49.0275 H   0  0  0  0  0  0  0  0  0  0  0  0
 17  1  1  6
  1 19  1  6
  2  7  2  0
 10  2  1  0
  4  3  1  0
  3 18  1  6
  5  4  1  0
  4 26  1  1
 17  5  1  0
  5 25  1  1
  6  7  1  0
 12  6  2  0
  7  8  1  0
  9  8  1  1
  8 21  2  0
  9 19  1  0
 11 10  2  0
 11 12  1  0
 27 11  1  0
 14 13  1  0
 13 27  1  6
 14 28  1  6
 15 16  1  0
 15 28  1  6
 16 22  1  6
 18 17  1  6
 19 20  2  0
 20 21  1  0
 22 23  1  0
 23 24  2  0
 24 29  1  0
M  CHG  2  18   1  19   1
M  END
$$$$
