
     RDKit          3D

 29 31  0  0  0  0  0  0  0  0999 V2000
   -2.3737  -38.0458   61.7627 C   0  0  0  0  0  0  0  0  0  0  0  0
   -2.9466  -37.8102   55.5973 C   0  0  0  0  0  0  0  0  0  0  0  0
   -0.9200  -40.2609   63.2529 C   0  0  0  0  0  0  0  0  0  0  0  0
   -0.6230  -39.2447   64.3342 C   0  0  2  0  0  0  0  0  0  0  0  0
   -0.7227  -37.9029   63.6455 C   0  0  2  0  0  0  0  0  0  0  0  0
   -2.4353  -35.7671   56.5901 C   0  0  0  0  0  0  0  0  0  0  0  0
   -2.6595  -37.1134   56.7350 C   0  0  0  0  0  0  0  0  0  0  0  0
   -2.5954  -37.7742   58.0479 C   0  0  0  0  0  0  0  0  0  0  0  0
   -2.4980  -37.1029   59.3563 C   0  0  0  0  0  0  0  0  0  0  0  0
   -3.0220  -37.2565   54.3451 C   0  0  0  0  0  0  0  0  0  0  0  0
   -2.7899  -35.8755   54.2083 C   0  0  0  0  0  0  0  0  0  0  0  0
   -2.4983  -35.1447   55.3411 C   0  0  0  0  0  0  0  0  0  0  0  0
   -2.8134  -35.9457   51.7110 C   0  0  0  0  0  0  0  0  0  0  0  0
   -1.9028  -35.2498   50.7595 C   0  0  0  0  0  0  0  0  0  0  0  0
   -1.4708  -33.2477   49.6178 C   0  0  0  0  0  0  0  0  0  0  0  0
   -2.4650  -32.7374   48.5451 C   0  0  0  0  0  0  0  0  0  0  0  0
   -0.9559  -38.1974   62.1969 C   0  0  1  0  0  0  0  0  0  0  0  0
   -0.6095  -39.6113   61.9956 N   0  0  0  0  0  4  0  0  0  0  0  0
   -2.4666  -38.1807   60.3075 N   0  0  0  0  0  4  0  0  0  0  0  0
   -2.5337  -39.2615   59.6604 N   0  0  0  0  0  0  0  0  0  0  0  0
   -2.6125  -39.0364   58.2879 N   0  0  0  0  0  0  0  0  0  0  0  0
   -3.6115  -32.2358   49.2466 N   0  0  0  0  0  0  0  0  0  0  0  0
   -3.7281  -30.8726   49.5464 N   0  0  0  0  0  0  0  0  0  0  0  0
   -3.6772  -30.0439   48.6086 N   0  0  0  0  0  0  0  0  0  0  0  0
    0.5357  -37.2848   63.7532 O   0  0  0  0  0  0  0  0  0  0  0  0
    0.6317  -39.4614   64.8806 O   0  0  0  0  0  0  0  0  0  0  0  0
   -2.8830  -35.3949   52.9421 O   0  0  0  0  0  0  0  0  0  0  0  0
   -2.2451  -33.9370   50.5172 O   0  0  0  0  0  0  0  0  0  0  0  0
   -2.8945  -30.0044   47.9207 H   0  0  0  0  0  0  0  0  0  0  0  0
 17  1  1  1
  1 19  1  6
  2  7  2  0
 10  2  1  0
  4  3  1  0
  3 18  1  6
  5  4  1  0
  4 26  1  6
 17  5  1  0
  5 25  1  6
  6  7  1  0
 12  6  2  0
  7  8  1  0
  9  8  1  1
  8 21  2  0
  9 19  1  0
 11 10  2  0
 11 12  1  0
 27 11  1  0
 14 13  1  0
 13 27  1  6
 14 28  1  6
 15 16  1  0
 15 28  1  6
 16 22  1  6
 18 17  1  6
 19 20  2  0
 20 21  1  0
 22 23  1  0
 23 24  2  0
 24 29  1  0
M  CHG  2  18   1  19   1
M  END
$$$$
