
     RDKit          3D

 29 31  0  0  0  0  0  0  0  0999 V2000
   21.9306  -47.2598   27.9001 C   0  0  0  0  0  0  0  0  0  0  0  0
   24.5277  -47.7723   32.8796 C   0  0  0  0  0  0  0  0  0  0  0  0
   22.2351  -46.3756   25.0077 C   0  0  0  0  0  0  0  0  0  0  0  0
   21.8055  -47.7705   24.6079 C   0  0  2  0  0  0  0  0  0  0  0  0
   22.1165  -48.6331   25.8095 C   0  0  2  0  0  0  0  0  0  0  0  0
   25.2772  -45.5680   32.8502 C   0  0  0  0  0  0  0  0  0  0  0  0
   24.5878  -46.5765   32.2246 C   0  0  0  0  0  0  0  0  0  0  0  0
   23.9463  -46.3822   30.9149 C   0  0  0  0  0  0  0  0  0  0  0  0
   23.1399  -47.3764   30.1846 C   0  0  0  0  0  0  0  0  0  0  0  0
   25.1025  -48.0197   34.0997 C   0  0  0  0  0  0  0  0  0  0  0  0
   25.8064  -46.9783   34.7320 C   0  0  0  0  0  0  0  0  0  0  0  0
   25.8850  -45.7584   34.0934 C   0  0  0  0  0  0  0  0  0  0  0  0
   27.1393  -46.6451   36.8187 C   0  0  0  0  0  0  0  0  0  0  0  0
   27.5009  -47.4272   38.0337 C   0  0  0  0  0  0  0  0  0  0  0  0
   26.4471  -47.5358   40.1256 C   0  0  0  0  0  0  0  0  0  0  0  0
   25.3293  -48.4091   40.7482 C   0  0  0  0  0  0  0  0  0  0  0  0
   22.8054  -47.7401   26.7931 C   0  0  1  0  0  0  0  0  0  0  0  0
   23.2275  -46.5446   26.0498 N   0  0  0  0  0  4  0  0  0  0  0  0
   22.7504  -46.7005   28.9768 N   0  0  0  0  0  4  0  0  0  0  0  0
   23.2433  -45.5398   29.0143 N   0  0  0  0  0  0  0  0  0  0  0  0
   23.9724  -45.3270   30.1821 N   0  0  0  0  0  0  0  0  0  0  0  0
   25.4834  -48.3275   42.1721 N   0  0  0  0  0  0  0  0  0  0  0  0
   25.2709  -47.1191   42.8476 N   0  0  0  0  0  0  0  0  0  0  0  0
   25.0343  -46.0884   42.1766 N   0  0  0  0  0  0  0  0  0  0  0  0
   23.0469  -49.6031   25.3963 O   0  0  0  0  0  0  0  0  0  0  0  0
   22.4837  -48.1872   23.4739 O   0  0  0  0  0  0  0  0  0  0  0  0
   26.3509  -47.2939   35.9348 O   0  0  0  0  0  0  0  0  0  0  0  0
   26.4164  -47.8263   38.7847 O   0  0  0  0  0  0  0  0  0  0  0  0
   25.3289  -45.9711   41.1831 H   0  0  0  0  0  0  0  0  0  0  0  0
 17  1  1  1
  1 19  1  6
  2  7  2  0
 10  2  1  0
  4  3  1  0
  3 18  1  6
  5  4  1  0
  4 26  1  6
 17  5  1  0
  5 25  1  6
  6  7  1  0
 12  6  2  0
  7  8  1  0
  9  8  1  1
  8 21  2  0
  9 19  1  0
 11 10  2  0
 11 12  1  0
 27 11  1  0
 14 13  1  0
 13 27  1  6
 14 28  1  6
 15 16  1  0
 15 28  1  6
 16 22  1  6
 18 17  1  6
 19 20  2  0
 20 21  1  0
 22 23  1  0
 23 24  2  0
 24 29  1  0
M  CHG  2  18   1  19   1
M  END
$$$$
