
     RDKit          3D

 29 31  0  0  0  0  0  0  0  0999 V2000
   -2.6032  -38.8308   61.6737 C   0  0  0  0  0  0  0  0  0  0  0  0
   -3.3762  -36.8031   56.4685 C   0  0  0  0  0  0  0  0  0  0  0  0
   -0.2825  -40.6049   62.5147 C   0  0  0  0  0  0  0  0  0  0  0  0
   -0.9710  -40.7535   63.8541 C   0  0  2  0  0  0  0  0  0  0  0  0
   -1.8731  -39.5457   63.9643 C   0  0  2  0  0  0  0  0  0  0  0  0
   -2.1414  -34.8782   56.9063 C   0  0  0  0  0  0  0  0  0  0  0  0
   -2.6351  -36.0775   57.3555 C   0  0  0  0  0  0  0  0  0  0  0  0
   -2.3811  -36.5585   58.7225 C   0  0  0  0  0  0  0  0  0  0  0  0
   -2.9108  -37.7962   59.3221 C   0  0  0  0  0  0  0  0  0  0  0  0
   -3.6500  -36.4131   55.1828 C   0  0  0  0  0  0  0  0  0  0  0  0
   -3.1384  -35.1820   54.7328 C   0  0  0  0  0  0  0  0  0  0  0  0
   -2.3863  -34.4260   55.6075 C   0  0  0  0  0  0  0  0  0  0  0  0
   -4.1080  -35.4802   52.4496 C   0  0  0  0  0  0  0  0  0  0  0  0
   -4.4628  -34.6107   51.2934 C   0  0  0  0  0  0  0  0  0  0  0  0
   -4.1142  -32.4545   50.4404 C   0  0  0  0  0  0  0  0  0  0  0  0
   -2.9770  -31.4033   50.4767 C   0  0  0  0  0  0  0  0  0  0  0  0
   -1.5892  -38.7056   62.7588 C   0  0  1  0  0  0  0  0  0  0  0  0
   -0.3203  -39.1914   62.1987 N   0  0  0  0  0  4  0  0  0  0  0  0
   -2.3741  -37.8031   60.6560 N   0  0  0  0  0  4  0  0  0  0  0  0
   -1.6714  -36.7640   60.7889 N   0  0  0  0  0  0  0  0  0  0  0  0
   -1.6628  -35.9955   59.6269 N   0  0  0  0  0  0  0  0  0  0  0  0
   -1.8812  -31.9511   49.7304 N   0  0  0  0  0  0  0  0  0  0  0  0
   -1.7210  -31.6546   48.3709 N   0  0  0  0  0  0  0  0  0  0  0  0
   -0.6892  -32.0559   47.7851 N   0  0  0  0  0  0  0  0  0  0  0  0
   -1.4581  -38.8175   65.0934 O   0  0  0  0  0  0  0  0  0  0  0  0
   -0.0420  -40.8092   64.8804 O   0  0  0  0  0  0  0  0  0  0  0  0
   -3.4501  -34.8585   53.4518 O   0  0  0  0  0  0  0  0  0  0  0  0
   -3.6160  -33.5371   51.1211 O   0  0  0  0  0  0  0  0  0  0  0  0
    0.0091  -32.6927   48.2260 H   0  0  0  0  0  0  0  0  0  0  0  0
 17  1  1  6
  1 19  1  6
  2  7  2  0
 10  2  1  0
  4  3  1  0
  3 18  1  6
  5  4  1  0
  4 26  1  1
 17  5  1  0
  5 25  1  1
  6  7  1  0
 12  6  2  0
  7  8  1  0
  9  8  1  1
  8 21  2  0
  9 19  1  0
 11 10  2  0
 11 12  1  0
 27 11  1  0
 14 13  1  0
 13 27  1  6
 14 28  1  6
 15 16  1  0
 15 28  1  6
 16 22  1  6
 18 17  1  6
 19 20  2  0
 20 21  1  0
 22 23  1  0
 23 24  2  0
 24 29  1  0
M  CHG  2  18   1  19   1
M  END
$$$$
