
     RDKit          3D

 29 31  0  0  0  0  0  0  0  0999 V2000
   -0.2399  -38.9787   61.4703 C   0  0  0  0  0  0  0  0  0  0  0  0
   -2.4975  -37.9895   55.7814 C   0  0  0  0  0  0  0  0  0  0  0  0
    0.0363  -38.0760   64.3599 C   0  0  0  0  0  0  0  0  0  0  0  0
   -0.6517  -39.3643   64.7562 C   0  0  2  0  0  0  0  0  0  0  0  0
   -1.4251  -39.7865   63.5280 C   0  0  2  0  0  0  0  0  0  0  0  0
   -0.7940  -36.5317   56.4093 C   0  0  0  0  0  0  0  0  0  0  0  0
   -1.5931  -37.6014   56.7268 C   0  0  0  0  0  0  0  0  0  0  0  0
   -1.4834  -38.2958   58.0193 C   0  0  0  0  0  0  0  0  0  0  0  0
   -0.5976  -37.9213   59.1360 C   0  0  0  0  0  0  0  0  0  0  0  0
   -2.6511  -37.3869   54.5594 C   0  0  0  0  0  0  0  0  0  0  0  0
   -1.8263  -36.2913   54.2443 C   0  0  0  0  0  0  0  0  0  0  0  0
   -0.9031  -35.8756   55.1809 C   0  0  0  0  0  0  0  0  0  0  0  0
   -3.0657  -35.7311   52.1486 C   0  0  0  0  0  0  0  0  0  0  0  0
   -4.3201  -35.1155   52.6644 C   0  0  0  0  0  0  0  0  0  0  0  0
   -6.2827  -34.1556   51.8126 C   0  0  0  0  0  0  0  0  0  0  0  0
   -7.4807  -34.6921   52.6352 C   0  0  0  0  0  0  0  0  0  0  0  0
   -1.2478  -38.6867   62.5288 C   0  0  1  0  0  0  0  0  0  0  0  0
   -0.7438  -37.5229   63.2714 N   0  0  0  0  0  4  0  0  0  0  0  0
   -0.8680  -38.9047   60.1496 N   0  0  0  0  0  4  0  0  0  0  0  0
   -1.7434  -39.6902   59.6938 N   0  0  0  0  0  0  0  0  0  0  0  0
   -2.1300  -39.3379   58.4026 N   0  0  0  0  0  0  0  0  0  0  0  0
   -8.1588  -35.6470   51.8067 N   0  0  0  0  0  0  0  0  0  0  0  0
   -8.6981  -36.8170   52.3564 N   0  0  0  0  0  0  0  0  0  0  0  0
   -8.2563  -37.9230   51.9687 N   0  0  0  0  0  0  0  0  0  0  0  0
   -2.7852  -39.8190   63.8830 O   0  0  0  0  0  0  0  0  0  0  0  0
   -1.4761  -39.1641   65.8515 O   0  0  0  0  0  0  0  0  0  0  0  0
   -2.0342  -35.7426   53.0202 O   0  0  0  0  0  0  0  0  0  0  0  0
   -5.3807  -35.1896   51.7873 O   0  0  0  0  0  0  0  0  0  0  0  0
   -7.7731  -38.0585   51.0545 H   0  0  0  0  0  0  0  0  0  0  0  0
 17  1  1  6
  1 19  1  6
  2  7  2  0
 10  2  1  0
  4  3  1  0
  3 18  1  6
  5  4  1  0
  4 26  1  1
 17  5  1  0
  5 25  1  1
  6  7  1  0
 12  6  2  0
  7  8  1  0
  9  8  1  1
  8 21  2  0
  9 19  1  0
 11 10  2  0
 11 12  1  0
 27 11  1  0
 14 13  1  0
 13 27  1  6
 14 28  1  6
 15 16  1  0
 15 28  1  6
 16 22  1  6
 18 17  1  6
 19 20  2  0
 20 21  1  0
 22 23  1  0
 23 24  2  0
 24 29  1  0
M  CHG  2  18   1  19   1
M  END
$$$$
