
     RDKit          3D

 37 42  0  0  0  0  0  0  0  0999 V2000
   83.8756   47.9757  265.6698 C   0  0  0  0  0  0  0  0  0  0  0  0
   82.9153   46.8317  265.6467 C   0  0  0  0  0  0  0  0  0  0  0  0
   82.5021   46.4506  267.0713 C   0  0  0  0  0  0  0  0  0  0  0  0
   83.7277   46.1232  267.7962 N   0  0  2  0  0  4  0  0  0  0  0  0
   83.3634   45.5619  269.0856 C   0  0  0  0  0  0  0  0  0  0  0  0
   84.5048   47.3239  267.9467 C   0  0  0  0  0  0  0  0  0  0  0  0
   85.0174   47.8175  266.6276 C   0  0  1  0  0  0  0  0  0  0  0  0
   86.0126   46.8806  266.1056 N   0  0  0  0  0  0  0  0  0  0  0  0
   87.2940   46.7518  266.7383 C   0  0  0  0  0  0  0  0  0  0  0  0
   87.3234   47.1756  267.9234 O   0  0  0  0  0  0  0  0  0  0  0  0
   88.3973   46.1758  266.0077 C   0  0  0  0  0  0  0  0  0  0  0  0
   88.1687   45.0460  265.1928 C   0  0  0  0  0  0  0  0  0  0  0  0
   89.1931   44.4712  264.4716 C   0  0  0  0  0  0  0  0  0  0  0  0
   90.4115   45.0108  264.5630 N   0  0  0  0  0  0  0  0  0  0  0  0
   90.6556   46.0907  265.3356 C   0  0  0  0  0  0  0  0  0  0  0  0
   89.6552   46.7178  266.0902 C   0  0  0  0  0  0  0  0  0  0  0  0
   89.9770   47.8467  266.8521 N   0  0  0  0  0  0  0  0  0  0  0  0
   91.3384   48.2658  267.1035 C   0  0  0  0  0  0  0  0  0  0  0  0
   91.5747   49.5224  267.6524 C   0  0  0  0  0  0  0  0  0  0  0  0
   92.4370   47.5004  266.7996 C   0  0  0  0  0  0  0  0  0  0  0  0
   93.7320   47.9263  267.0160 C   0  0  0  0  0  0  0  0  0  0  0  0
   94.8094   47.1811  266.7208 N   0  0  0  0  0  0  0  0  0  0  0  0
   96.0706   47.6181  266.9412 C   0  0  0  0  0  0  0  0  0  0  0  0
   96.2667   48.8681  267.4865 C   0  0  0  0  0  0  0  0  0  0  0  0
   95.1809   49.6139  267.7818 N   0  0  0  0  0  0  0  0  0  0  0  0
   93.9196   49.1961  267.5697 C   0  0  0  0  0  0  0  0  0  0  0  0
   92.8446   49.9986  267.8897 C   0  0  0  0  0  0  0  0  0  0  0  0
   93.1092   51.3089  268.4624 C   0  0  0  0  0  0  0  0  0  0  0  0
   92.9549   51.4938  269.8334 C   0  0  0  0  0  0  0  0  0  0  0  0
   93.1900   52.7128  270.4403 C   0  0  0  0  0  0  0  0  0  0  0  0
   93.1101   53.1246  271.7181 N   0  0  0  0  0  0  0  0  0  0  0  0
   92.7257   52.3182  272.8591 C   0  0  0  0  0  0  0  0  0  0  0  0
   93.4430   54.4247  271.8114 C   0  0  0  0  0  0  0  0  0  0  0  0
   93.7439   54.8497  270.5486 C   0  0  0  0  0  0  0  0  0  0  0  0
   93.5928   53.7949  269.6713 C   0  0  0  0  0  0  0  0  0  0  0  0
   93.7491   53.6341  268.3295 C   0  0  0  0  0  0  0  0  0  0  0  0
   93.5100   52.4009  267.7245 C   0  0  0  0  0  0  0  0  0  0  0  0
  1  2  1  0
  1  7  1  0
  2  3  1  0
  3  4  1  0
  4  5  1  1
  4  6  1  0
  6  7  1  0
  7  8  1  6
  8  9  1  0
  9 10  2  0
  9 11  1  0
 11 12  2  0
 11 16  1  0
 12 13  1  0
 13 14  2  0
 14 15  1  0
 15 16  2  0
 16 17  1  0
 17 18  1  0
 18 19  2  0
 18 20  1  0
 19 27  1  0
 20 21  2  0
 21 22  1  0
 21 26  1  0
 22 23  2  0
 23 24  1  0
 24 25  2  0
 25 26  1  0
 26 27  2  0
 27 28  1  0
 28 29  2  0
 28 37  1  0
 29 30  1  0
 30 31  1  0
 30 35  2  0
 31 32  1  0
 31 33  1  0
 33 34  2  0
 34 35  1  0
 35 36  1  0
 36 37  2  0
M  CHG  1   4   1
M  END
$$$$
