
     RDKit          3D

 37 42  0  0  0  0  0  0  0  0999 V2000
   83.4037   46.9507  266.2321 C   0  0  0  0  0  0  0  0  0  0  0  0
   82.7598   45.6337  266.5192 C   0  0  0  0  0  0  0  0  0  0  0  0
   82.7247   45.3725  268.0278 C   0  0  0  0  0  0  0  0  0  0  0  0
   84.1064   45.4219  268.5002 N   0  0  2  0  0  4  0  0  0  0  0  0
   84.1358   44.9786  269.8832 C   0  0  0  0  0  0  0  0  0  0  0  0
   84.5860   46.7715  268.3709 C   0  0  0  0  0  0  0  0  0  0  0  0
   84.7087   47.1776  266.9334 C   0  0  1  0  0  0  0  0  0  0  0  0
   85.7840   46.4158  266.2979 N   0  0  0  0  0  0  0  0  0  0  0  0
   87.1516   46.8241  266.4458 C   0  0  0  0  0  0  0  0  0  0  0  0
   87.3243   47.7305  267.3022 O   0  0  0  0  0  0  0  0  0  0  0  0
   88.1752   46.1981  265.6437 C   0  0  0  0  0  0  0  0  0  0  0  0
   87.8401   45.0808  264.8486 C   0  0  0  0  0  0  0  0  0  0  0  0
   88.7857   44.4598  264.0613 C   0  0  0  0  0  0  0  0  0  0  0  0
   90.0312   44.9422  264.0692 N   0  0  0  0  0  0  0  0  0  0  0  0
   90.3767   46.0088  264.8211 C   0  0  0  0  0  0  0  0  0  0  0  0
   89.4596   46.6811  265.6400 C   0  0  0  0  0  0  0  0  0  0  0  0
   89.8840   47.7931  266.3760 N   0  0  0  0  0  0  0  0  0  0  0  0
   91.2758   48.0644  266.6617 C   0  0  0  0  0  0  0  0  0  0  0  0
   91.6285   49.2783  267.2433 C   0  0  0  0  0  0  0  0  0  0  0  0
   92.2961   47.1965  266.3605 C   0  0  0  0  0  0  0  0  0  0  0  0
   93.6233   47.4822  266.6102 C   0  0  0  0  0  0  0  0  0  0  0  0
   94.6244   46.6363  266.3177 N   0  0  0  0  0  0  0  0  0  0  0  0
   95.9190   46.9364  266.5711 C   0  0  0  0  0  0  0  0  0  0  0  0
   96.2310   48.1480  267.1483 C   0  0  0  0  0  0  0  0  0  0  0  0
   95.2216   48.9953  267.4406 N   0  0  0  0  0  0  0  0  0  0  0  0
   93.9287   48.7141  267.1960 C   0  0  0  0  0  0  0  0  0  0  0  0
   92.9354   49.6162  267.5146 C   0  0  0  0  0  0  0  0  0  0  0  0
   93.3211   50.8801  268.1219 C   0  0  0  0  0  0  0  0  0  0  0  0
   92.6500   51.3188  269.2597 C   0  0  0  0  0  0  0  0  0  0  0  0
   92.9671   52.5096  269.8850 C   0  0  0  0  0  0  0  0  0  0  0  0
   92.4710   53.1284  270.9711 N   0  0  0  0  0  0  0  0  0  0  0  0
   91.3940   52.6520  271.8155 C   0  0  0  0  0  0  0  0  0  0  0  0
   93.1207   54.2866  271.1863 C   0  0  0  0  0  0  0  0  0  0  0  0
   94.0603   54.4041  270.2019 C   0  0  0  0  0  0  0  0  0  0  0  0
   93.9840   53.3027  269.3735 C   0  0  0  0  0  0  0  0  0  0  0  0
   94.6516   52.8910  268.2621 C   0  0  0  0  0  0  0  0  0  0  0  0
   94.3258   51.6881  267.6367 C   0  0  0  0  0  0  0  0  0  0  0  0
  1  2  1  0
  1  7  1  0
  2  3  1  0
  3  4  1  0
  4  5  1  1
  4  6  1  0
  6  7  1  0
  7  8  1  6
  8  9  1  0
  9 10  2  0
  9 11  1  0
 11 12  2  0
 11 16  1  0
 12 13  1  0
 13 14  2  0
 14 15  1  0
 15 16  2  0
 16 17  1  0
 17 18  1  0
 18 19  2  0
 18 20  1  0
 19 27  1  0
 20 21  2  0
 21 22  1  0
 21 26  1  0
 22 23  2  0
 23 24  1  0
 24 25  2  0
 25 26  1  0
 26 27  2  0
 27 28  1  0
 28 29  2  0
 28 37  1  0
 29 30  1  0
 30 31  1  0
 30 35  2  0
 31 32  1  0
 31 33  1  0
 33 34  2  0
 34 35  1  0
 35 36  1  0
 36 37  2  0
M  CHG  1   4   1
M  END
$$$$
