
     RDKit          3D

 37 42  0  0  0  0  0  0  0  0999 V2000
   84.6218   46.2089  268.5416 C   0  0  0  0  0  0  0  0  0  0  0  0
   83.3347   45.8151  267.8938 C   0  0  0  0  0  0  0  0  0  0  0  0
   82.9355   44.3976  268.3143 C   0  0  0  0  0  0  0  0  0  0  0  0
   84.0349   43.5149  267.9312 N   0  0  2  0  0  4  0  0  0  0  0  0
   83.6100   42.1396  268.1266 C   0  0  0  0  0  0  0  0  0  0  0  0
   85.1795   43.8313  268.7422 C   0  0  0  0  0  0  0  0  0  0  0  0
   85.7185   45.1939  268.4274 C   0  0  1  0  0  0  0  0  0  0  0  0
   86.2952   45.1953  267.0828 N   0  0  0  0  0  0  0  0  0  0  0  0
   87.2122   46.2246  266.6846 C   0  0  0  0  0  0  0  0  0  0  0  0
   87.0851   47.2990  267.3285 O   0  0  0  0  0  0  0  0  0  0  0  0
   88.1634   45.9659  265.6305 C   0  0  0  0  0  0  0  0  0  0  0  0
   87.7750   45.1678  264.5329 C   0  0  0  0  0  0  0  0  0  0  0  0
   88.6500   44.9043  263.5010 C   0  0  0  0  0  0  0  0  0  0  0  0
   89.8788   45.4241  263.5652 N   0  0  0  0  0  0  0  0  0  0  0  0
   90.2742   46.1900  264.6042 C   0  0  0  0  0  0  0  0  0  0  0  0
   89.4297   46.4924  265.6807 C   0  0  0  0  0  0  0  0  0  0  0  0
   89.9011   47.3107  266.7134 N   0  0  0  0  0  0  0  0  0  0  0  0
   91.2951   47.6669  266.8626 C   0  0  0  0  0  0  0  0  0  0  0  0
   91.6310   48.9641  267.2375 C   0  0  0  0  0  0  0  0  0  0  0  0
   92.3307   46.7983  266.6221 C   0  0  0  0  0  0  0  0  0  0  0  0
   93.6574   47.1612  266.7380 C   0  0  0  0  0  0  0  0  0  0  0  0
   94.6737   46.3150  266.5042 N   0  0  0  0  0  0  0  0  0  0  0  0
   95.9675   46.6917  266.6238 C   0  0  0  0  0  0  0  0  0  0  0  0
   96.2628   47.9847  266.9974 C   0  0  0  0  0  0  0  0  0  0  0  0
   95.2383   48.8319  267.2314 N   0  0  0  0  0  0  0  0  0  0  0  0
   93.9459   48.4753  267.1176 C   0  0  0  0  0  0  0  0  0  0  0  0
   92.9367   49.3812  267.3685 C   0  0  0  0  0  0  0  0  0  0  0  0
   93.3051   50.7327  267.7592 C   0  0  0  0  0  0  0  0  0  0  0  0
   92.7008   51.3048  268.8750 C   0  0  0  0  0  0  0  0  0  0  0  0
   93.0059   52.5840  269.2993 C   0  0  0  0  0  0  0  0  0  0  0  0
   92.5633   53.3334  270.3247 N   0  0  0  0  0  0  0  0  0  0  0  0
   91.5770   52.9433  271.3121 C   0  0  0  0  0  0  0  0  0  0  0  0
   93.1703   54.5339  270.3219 C   0  0  0  0  0  0  0  0  0  0  0  0
   94.0265   54.5439  269.2577 C   0  0  0  0  0  0  0  0  0  0  0  0
   93.9417   53.3329  268.6009 C   0  0  0  0  0  0  0  0  0  0  0  0
   94.5433   52.7911  267.5076 C   0  0  0  0  0  0  0  0  0  0  0  0
   94.2301   51.4996  267.0856 C   0  0  0  0  0  0  0  0  0  0  0  0
  1  2  1  0
  1  7  1  0
  2  3  1  0
  3  4  1  0
  4  5  1  1
  4  6  1  0
  6  7  1  0
  7  8  1  6
  8  9  1  0
  9 10  2  0
  9 11  1  0
 11 12  2  0
 11 16  1  0
 12 13  1  0
 13 14  2  0
 14 15  1  0
 15 16  2  0
 16 17  1  0
 17 18  1  0
 18 19  2  0
 18 20  1  0
 19 27  1  0
 20 21  2  0
 21 22  1  0
 21 26  1  0
 22 23  2  0
 23 24  1  0
 24 25  2  0
 25 26  1  0
 26 27  2  0
 27 28  1  0
 28 29  2  0
 28 37  1  0
 29 30  1  0
 30 31  1  0
 30 35  2  0
 31 32  1  0
 31 33  1  0
 33 34  2  0
 34 35  1  0
 35 36  1  0
 36 37  2  0
M  CHG  1   4   1
M  END
$$$$
