
     RDKit          3D

 37 42  0  0  0  0  0  0  0  0999 V2000
   83.8251   46.6582  267.1832 C   0  0  0  0  0  0  0  0  0  0  0  0
   83.0751   45.3741  267.0412 C   0  0  0  0  0  0  0  0  0  0  0  0
   83.1479   44.5652  268.3396 C   0  0  0  0  0  0  0  0  0  0  0  0
   84.5639   44.3447  268.6244 N   0  0  2  0  0  4  0  0  0  0  0  0
   84.6703   43.4109  269.7321 C   0  0  0  0  0  0  0  0  0  0  0  0
   85.1686   45.6097  268.9439 C   0  0  0  0  0  0  0  0  0  0  0  0
   85.2040   46.5200  267.7537 C   0  0  1  0  0  0  0  0  0  0  0  0
   86.1325   45.9881  266.7560 N   0  0  0  0  0  0  0  0  0  0  0  0
   87.4969   46.4312  266.7214 C   0  0  0  0  0  0  0  0  0  0  0  0
   87.8679   47.0244  267.7680 O   0  0  0  0  0  0  0  0  0  0  0  0
   88.3014   46.1774  265.5504 C   0  0  0  0  0  0  0  0  0  0  0  0
   87.9387   45.1269  264.6801 C   0  0  0  0  0  0  0  0  0  0  0  0
   88.6748   44.8573  263.5464 C   0  0  0  0  0  0  0  0  0  0  0  0
   89.7435   45.6166  263.2905 N   0  0  0  0  0  0  0  0  0  0  0  0
   90.1111   46.6266  264.1074 C   0  0  0  0  0  0  0  0  0  0  0  0
   89.4023   46.9481  265.2727 C   0  0  0  0  0  0  0  0  0  0  0  0
   89.8296   48.0226  266.0609 N   0  0  0  0  0  0  0  0  0  0  0  0
   91.2213   48.2707  266.3672 C   0  0  0  0  0  0  0  0  0  0  0  0
   91.5844   49.4754  266.9614 C   0  0  0  0  0  0  0  0  0  0  0  0
   92.2322   47.3892  266.0741 C   0  0  0  0  0  0  0  0  0  0  0  0
   93.5601   47.6529  266.3436 C   0  0  0  0  0  0  0  0  0  0  0  0
   94.5521   46.7937  266.0592 N   0  0  0  0  0  0  0  0  0  0  0  0
   95.8475   47.0723  266.3320 C   0  0  0  0  0  0  0  0  0  0  0  0
   96.1701   48.2754  266.9212 C   0  0  0  0  0  0  0  0  0  0  0  0
   95.1698   49.1362  267.2054 N   0  0  0  0  0  0  0  0  0  0  0  0
   93.8763   48.8764  266.9415 C   0  0  0  0  0  0  0  0  0  0  0  0
   92.8925   49.7916  267.2525 C   0  0  0  0  0  0  0  0  0  0  0  0
   93.2891   51.0456  267.8730 C   0  0  0  0  0  0  0  0  0  0  0  0
   92.6658   51.4464  269.0513 C   0  0  0  0  0  0  0  0  0  0  0  0
   92.9957   52.6258  269.6912 C   0  0  0  0  0  0  0  0  0  0  0  0
   92.5423   53.2105  270.8144 N   0  0  0  0  0  0  0  0  0  0  0  0
   91.5120   52.6979  271.6951 C   0  0  0  0  0  0  0  0  0  0  0  0
   93.1858   54.3723  271.0285 C   0  0  0  0  0  0  0  0  0  0  0  0
   94.0770   54.5276  270.0052 C   0  0  0  0  0  0  0  0  0  0  0  0
   93.9770   53.4459  269.1537 C   0  0  0  0  0  0  0  0  0  0  0  0
   94.5978   53.0714  268.0026 C   0  0  0  0  0  0  0  0  0  0  0  0
   94.2593   51.8797  267.3627 C   0  0  0  0  0  0  0  0  0  0  0  0
  1  2  1  0
  1  7  1  0
  2  3  1  0
  3  4  1  0
  4  5  1  1
  4  6  1  0
  6  7  1  0
  7  8  1  6
  8  9  1  0
  9 10  2  0
  9 11  1  0
 11 12  2  0
 11 16  1  0
 12 13  1  0
 13 14  2  0
 14 15  1  0
 15 16  2  0
 16 17  1  0
 17 18  1  0
 18 19  2  0
 18 20  1  0
 19 27  1  0
 20 21  2  0
 21 22  1  0
 21 26  1  0
 22 23  2  0
 23 24  1  0
 24 25  2  0
 25 26  1  0
 26 27  2  0
 27 28  1  0
 28 29  2  0
 28 37  1  0
 29 30  1  0
 30 31  1  0
 30 35  2  0
 31 32  1  0
 31 33  1  0
 33 34  2  0
 34 35  1  0
 35 36  1  0
 36 37  2  0
M  CHG  1   4   1
M  END
$$$$
