
     RDKit          3D

 37 42  0  0  0  0  0  0  0  0999 V2000
   86.5714   43.8932  269.9624 C   0  0  0  0  0  0  0  0  0  0  0  0
   85.5103   44.6972  270.6399 C   0  0  0  0  0  0  0  0  0  0  0  0
   84.1214   44.1602  270.2820 C   0  0  0  0  0  0  0  0  0  0  0  0
   84.0061   44.2157  268.8266 N   0  0  2  0  0  4  0  0  0  0  0  0
   82.6339   43.9085  268.4619 C   0  0  0  0  0  0  0  0  0  0  0  0
   84.9255   43.2671  268.2584 C   0  0  0  0  0  0  0  0  0  0  0  0
   86.3496   43.6687  268.4973 C   0  0  1  0  0  0  0  0  0  0  0  0
   86.6544   44.8769  267.7305 N   0  0  0  0  0  0  0  0  0  0  0  0
   87.9377   45.0412  267.1099 C   0  0  0  0  0  0  0  0  0  0  0  0
   88.7440   44.1041  267.3480 O   0  0  0  0  0  0  0  0  0  0  0  0
   88.1962   46.2078  266.3004 C   0  0  0  0  0  0  0  0  0  0  0  0
   87.1807   46.6941  265.4489 C   0  0  0  0  0  0  0  0  0  0  0  0
   87.3837   47.8106  264.6666 C   0  0  0  0  0  0  0  0  0  0  0  0
   88.5688   48.4231  264.7336 N   0  0  0  0  0  0  0  0  0  0  0  0
   89.5559   47.9774  265.5395 C   0  0  0  0  0  0  0  0  0  0  0  0
   89.4080   46.8492  266.3574 C   0  0  0  0  0  0  0  0  0  0  0  0
   90.4674   46.4574  267.1836 N   0  0  0  0  0  0  0  0  0  0  0  0
   91.7881   47.0417  267.1017 C   0  0  0  0  0  0  0  0  0  0  0  0
   91.9800   48.3546  267.5207 C   0  0  0  0  0  0  0  0  0  0  0  0
   92.8807   46.3811  266.5970 C   0  0  0  0  0  0  0  0  0  0  0  0
   94.1287   46.9622  266.4957 C   0  0  0  0  0  0  0  0  0  0  0  0
   95.2003   46.3200  266.0032 N   0  0  0  0  0  0  0  0  0  0  0  0
   96.4150   46.9087  265.9128 C   0  0  0  0  0  0  0  0  0  0  0  0
   96.5680   48.2104  266.3377 C   0  0  0  0  0  0  0  0  0  0  0  0
   95.4883   48.8522  266.8321 N   0  0  0  0  0  0  0  0  0  0  0  0
   94.2729   48.2833  266.9296 C   0  0  0  0  0  0  0  0  0  0  0  0
   93.2019   48.9844  267.4429 C   0  0  0  0  0  0  0  0  0  0  0  0
   93.4197   50.3555  267.8761 C   0  0  0  0  0  0  0  0  0  0  0  0
   92.6457   50.8707  268.9119 C   0  0  0  0  0  0  0  0  0  0  0  0
   92.8020   52.1647  269.3708 C   0  0  0  0  0  0  0  0  0  0  0  0
   92.1857   52.8694  270.3364 N   0  0  0  0  0  0  0  0  0  0  0  0
   91.1203   52.3981  271.1982 C   0  0  0  0  0  0  0  0  0  0  0  0
   92.6979   54.1113  270.4074 C   0  0  0  0  0  0  0  0  0  0  0  0
   93.6720   54.1947  269.4534 C   0  0  0  0  0  0  0  0  0  0  0  0
   93.7564   52.9872  268.7902 C   0  0  0  0  0  0  0  0  0  0  0  0
   94.5228   52.5019  267.7764 C   0  0  0  0  0  0  0  0  0  0  0  0
   94.3590   51.1950  267.3188 C   0  0  0  0  0  0  0  0  0  0  0  0
  1  2  1  0
  1  7  1  0
  2  3  1  0
  3  4  1  0
  4  5  1  1
  4  6  1  0
  6  7  1  0
  7  8  1  6
  8  9  1  0
  9 10  2  0
  9 11  1  0
 11 12  2  0
 11 16  1  0
 12 13  1  0
 13 14  2  0
 14 15  1  0
 15 16  2  0
 16 17  1  0
 17 18  1  0
 18 19  2  0
 18 20  1  0
 19 27  1  0
 20 21  2  0
 21 22  1  0
 21 26  1  0
 22 23  2  0
 23 24  1  0
 24 25  2  0
 25 26  1  0
 26 27  2  0
 27 28  1  0
 28 29  2  0
 28 37  1  0
 29 30  1  0
 30 31  1  0
 30 35  2  0
 31 32  1  0
 31 33  1  0
 33 34  2  0
 34 35  1  0
 35 36  1  0
 36 37  2  0
M  CHG  1   4   1
M  END
$$$$
