
     RDKit          3D

 37 42  0  0  0  0  0  0  0  0999 V2000
   84.6400   46.4907  268.3810 C   0  0  0  0  0  0  0  0  0  0  0  0
   83.5148   45.6589  267.8583 C   0  0  0  0  0  0  0  0  0  0  0  0
   83.3764   44.3711  268.6757 C   0  0  0  0  0  0  0  0  0  0  0  0
   84.6581   43.6747  268.5921 N   0  0  2  0  0  4  0  0  0  0  0  0
   84.5043   42.3559  269.1816 C   0  0  0  0  0  0  0  0  0  0  0  0
   85.6467   44.4505  269.2913 C   0  0  0  0  0  0  0  0  0  0  0  0
   85.9241   45.7477  268.5936 C   0  0  1  0  0  0  0  0  0  0  0  0
   86.5948   45.4865  267.3198 N   0  0  0  0  0  0  0  0  0  0  0  0
   87.2853   46.5390  266.6310 C   0  0  0  0  0  0  0  0  0  0  0  0
   86.9975   47.6935  267.0425 O   0  0  0  0  0  0  0  0  0  0  0  0
   88.2109   46.2136  265.5726 C   0  0  0  0  0  0  0  0  0  0  0  0
   87.8326   45.2706  264.5925 C   0  0  0  0  0  0  0  0  0  0  0  0
   88.6834   44.9388  263.5601 C   0  0  0  0  0  0  0  0  0  0  0  0
   89.8786   45.5328  263.5094 N   0  0  0  0  0  0  0  0  0  0  0  0
   90.2637   46.4373  264.4347 C   0  0  0  0  0  0  0  0  0  0  0  0
   89.4426   46.8148  265.5056 C   0  0  0  0  0  0  0  0  0  0  0  0
   89.8999   47.7749  266.4152 N   0  0  0  0  0  0  0  0  0  0  0  0
   91.3001   47.9613  266.7268 C   0  0  0  0  0  0  0  0  0  0  0  0
   91.7305   49.1871  267.2251 C   0  0  0  0  0  0  0  0  0  0  0  0
   92.2571   46.9970  266.5284 C   0  0  0  0  0  0  0  0  0  0  0  0
   93.5950   47.1996  266.8008 C   0  0  0  0  0  0  0  0  0  0  0  0
   94.5344   46.2594  266.6088 N   0  0  0  0  0  0  0  0  0  0  0  0
   95.8409   46.4792  266.8826 C   0  0  0  0  0  0  0  0  0  0  0  0
   96.2308   47.7056  267.3753 C   0  0  0  0  0  0  0  0  0  0  0  0
   95.2832   48.6478  267.5668 N   0  0  0  0  0  0  0  0  0  0  0  0
   93.9797   48.4474  267.3003 C   0  0  0  0  0  0  0  0  0  0  0  0
   93.0517   49.4449  267.5143 C   0  0  0  0  0  0  0  0  0  0  0  0
   93.5183   50.7199  268.0353 C   0  0  0  0  0  0  0  0  0  0  0  0
   92.8580   51.2926  269.1187 C   0  0  0  0  0  0  0  0  0  0  0  0
   93.2503   52.5013  269.6614 C   0  0  0  0  0  0  0  0  0  0  0  0
   92.7790   53.2363  270.6844 N   0  0  0  0  0  0  0  0  0  0  0  0
   91.6515   52.9062  271.5327 C   0  0  0  0  0  0  0  0  0  0  0  0
   93.5091   54.3568  270.8297 C   0  0  0  0  0  0  0  0  0  0  0  0
   94.4757   54.3293  269.8649 C   0  0  0  0  0  0  0  0  0  0  0  0
   94.3345   53.1762  269.1196 C   0  0  0  0  0  0  0  0  0  0  0  0
   94.9929   52.6327  268.0604 C   0  0  0  0  0  0  0  0  0  0  0  0
   94.5910   51.4125  267.5184 C   0  0  0  0  0  0  0  0  0  0  0  0
  1  2  1  0
  1  7  1  0
  2  3  1  0
  3  4  1  0
  4  5  1  1
  4  6  1  0
  6  7  1  0
  7  8  1  6
  8  9  1  0
  9 10  2  0
  9 11  1  0
 11 12  2  0
 11 16  1  0
 12 13  1  0
 13 14  2  0
 14 15  1  0
 15 16  2  0
 16 17  1  0
 17 18  1  0
 18 19  2  0
 18 20  1  0
 19 27  1  0
 20 21  2  0
 21 22  1  0
 21 26  1  0
 22 23  2  0
 23 24  1  0
 24 25  2  0
 25 26  1  0
 26 27  2  0
 27 28  1  0
 28 29  2  0
 28 37  1  0
 29 30  1  0
 30 31  1  0
 30 35  2  0
 31 32  1  0
 31 33  1  0
 33 34  2  0
 34 35  1  0
 35 36  1  0
 36 37  2  0
M  CHG  1   4   1
M  END
$$$$
