
     RDKit          3D

 37 42  0  0  0  0  0  0  0  0999 V2000
   83.7951   46.8255  267.3824 C   0  0  0  0  0  0  0  0  0  0  0  0
   82.9564   45.6466  267.0106 C   0  0  0  0  0  0  0  0  0  0  0  0
   82.9055   44.6407  268.1643 C   0  0  0  0  0  0  0  0  0  0  0  0
   84.2853   44.2611  268.4588 N   0  0  2  0  0  4  0  0  0  0  0  0
   84.2672   43.1594  269.4055 C   0  0  0  0  0  0  0  0  0  0  0  0
   84.9695   45.4054  268.9976 C   0  0  0  0  0  0  0  0  0  0  0  0
   85.1309   46.4851  267.9706 C   0  0  1  0  0  0  0  0  0  0  0  0
   86.0620   46.0410  266.9331 N   0  0  0  0  0  0  0  0  0  0  0  0
   87.0683   46.9306  266.4283 C   0  0  0  0  0  0  0  0  0  0  0  0
   87.0593   48.0693  266.9651 O   0  0  0  0  0  0  0  0  0  0  0  0
   87.9699   46.4780  265.3961 C   0  0  0  0  0  0  0  0  0  0  0  0
   87.5585   45.4445  264.5269 C   0  0  0  0  0  0  0  0  0  0  0  0
   88.3856   44.9897  263.5225 C   0  0  0  0  0  0  0  0  0  0  0  0
   89.5900   45.5522  263.3913 N   0  0  0  0  0  0  0  0  0  0  0  0
   90.0065   46.5415  264.2100 C   0  0  0  0  0  0  0  0  0  0  0  0
   89.2105   47.0452  265.2474 C   0  0  0  0  0  0  0  0  0  0  0  0
   89.6999   48.0868  266.0436 N   0  0  0  0  0  0  0  0  0  0  0  0
   91.0914   48.2031  266.4210 C   0  0  0  0  0  0  0  0  0  0  0  0
   91.5469   49.3886  266.9896 C   0  0  0  0  0  0  0  0  0  0  0  0
   92.0181   47.2101  266.2209 C   0  0  0  0  0  0  0  0  0  0  0  0
   93.3498   47.3468  266.5573 C   0  0  0  0  0  0  0  0  0  0  0  0
   94.2596   46.3782  266.3639 N   0  0  0  0  0  0  0  0  0  0  0  0
   95.5606   46.5333  266.7011 C   0  0  0  0  0  0  0  0  0  0  0  0
   95.9758   47.7212  267.2624 C   0  0  0  0  0  0  0  0  0  0  0  0
   95.0580   48.6922  267.4550 N   0  0  0  0  0  0  0  0  0  0  0  0
   93.7605   48.5560  267.1261 C   0  0  0  0  0  0  0  0  0  0  0  0
   92.8634   49.5805  267.3444 C   0  0  0  0  0  0  0  0  0  0  0  0
   93.3559   50.8127  267.9393 C   0  0  0  0  0  0  0  0  0  0  0  0
   92.7119   51.3298  269.0598 C   0  0  0  0  0  0  0  0  0  0  0  0
   93.1290   52.4959  269.6727 C   0  0  0  0  0  0  0  0  0  0  0  0
   92.6767   53.1753  270.7417 N   0  0  0  0  0  0  0  0  0  0  0  0
   91.5478   52.8142  271.5754 C   0  0  0  0  0  0  0  0  0  0  0  0
   93.4279   54.2715  270.9504 C   0  0  0  0  0  0  0  0  0  0  0  0
   94.3887   54.2858  269.9796 C   0  0  0  0  0  0  0  0  0  0  0  0
   94.2225   53.1831  269.1662 C   0  0  0  0  0  0  0  0  0  0  0  0
   94.8653   52.6937  268.0717 C   0  0  0  0  0  0  0  0  0  0  0  0
   94.4383   51.5163  267.4587 C   0  0  0  0  0  0  0  0  0  0  0  0
  1  2  1  0
  1  7  1  0
  2  3  1  0
  3  4  1  0
  4  5  1  1
  4  6  1  0
  6  7  1  0
  7  8  1  6
  8  9  1  0
  9 10  2  0
  9 11  1  0
 11 12  2  0
 11 16  1  0
 12 13  1  0
 13 14  2  0
 14 15  1  0
 15 16  2  0
 16 17  1  0
 17 18  1  0
 18 19  2  0
 18 20  1  0
 19 27  1  0
 20 21  2  0
 21 22  1  0
 21 26  1  0
 22 23  2  0
 23 24  1  0
 24 25  2  0
 25 26  1  0
 26 27  2  0
 27 28  1  0
 28 29  2  0
 28 37  1  0
 29 30  1  0
 30 31  1  0
 30 35  2  0
 31 32  1  0
 31 33  1  0
 33 34  2  0
 34 35  1  0
 35 36  1  0
 36 37  2  0
M  CHG  1   4   1
M  END
$$$$
