
     RDKit          3D

 37 42  0  0  0  0  0  0  0  0999 V2000
   85.8294   46.4147  267.7478 C   0  0  0  0  0  0  0  0  0  0  0  0
   84.8866   45.9195  266.7003 C   0  0  0  0  0  0  0  0  0  0  0  0
   84.4803   44.4711  266.9874 C   0  0  0  0  0  0  0  0  0  0  0  0
   85.7111   43.6852  267.0332 N   0  0  2  0  0  4  0  0  0  0  0  0
   85.3562   42.2782  267.0995 C   0  0  0  0  0  0  0  0  0  0  0  0
   86.4699   44.0904  268.1856 C   0  0  0  0  0  0  0  0  0  0  0  0
   86.9742   45.4950  268.0475 C   0  0  1  0  0  0  0  0  0  0  0  0
   87.9831   45.5530  266.9896 N   0  0  0  0  0  0  0  0  0  0  0  0
   88.9818   46.5833  266.9912 C   0  0  0  0  0  0  0  0  0  0  0  0
   88.6290   47.6357  267.5851 O   0  0  0  0  0  0  0  0  0  0  0  0
   90.2513   46.3492  266.3457 C   0  0  0  0  0  0  0  0  0  0  0  0
   90.3435   45.3557  265.3473 C   0  0  0  0  0  0  0  0  0  0  0  0
   91.5349   45.1072  264.7001 C   0  0  0  0  0  0  0  0  0  0  0  0
   92.6037   45.8316  265.0421 N   0  0  0  0  0  0  0  0  0  0  0  0
   92.5412   46.7869  265.9938 C   0  0  0  0  0  0  0  0  0  0  0  0
   91.3591   47.0847  266.6849 C   0  0  0  0  0  0  0  0  0  0  0  0
   91.3637   48.1033  267.6445 N   0  0  0  0  0  0  0  0  0  0  0  0
   92.2909   49.2130  267.6113 C   0  0  0  0  0  0  0  0  0  0  0  0
   92.2690   50.1508  268.6389 C   0  0  0  0  0  0  0  0  0  0  0  0
   93.1883   49.4225  266.5935 C   0  0  0  0  0  0  0  0  0  0  0  0
   94.0458   50.5036  266.5593 C   0  0  0  0  0  0  0  0  0  0  0  0
   94.9254   50.7124  265.5663 N   0  0  0  0  0  0  0  0  0  0  0  0
   95.7572   51.7793  265.5525 C   0  0  0  0  0  0  0  0  0  0  0  0
   95.7078   52.6877  266.5873 C   0  0  0  0  0  0  0  0  0  0  0  0
   94.8221   52.4740  267.5834 N   0  0  0  0  0  0  0  0  0  0  0  0
   93.9874   51.4192  267.6141 C   0  0  0  0  0  0  0  0  0  0  0  0
   93.1008   51.2479  268.6566 C   0  0  0  0  0  0  0  0  0  0  0  0
   93.0908   52.2373  269.7224 C   0  0  0  0  0  0  0  0  0  0  0  0
   92.0330   53.1384  269.8015 C   0  0  0  0  0  0  0  0  0  0  0  0
   91.9630   54.1026  270.7889 C   0  0  0  0  0  0  0  0  0  0  0  0
   91.0609   55.0616  271.0634 N   0  0  0  0  0  0  0  0  0  0  0  0
   89.8441   55.3342  270.3252 C   0  0  0  0  0  0  0  0  0  0  0  0
   91.4398   55.7629  272.1470 C   0  0  0  0  0  0  0  0  0  0  0  0
   92.6228   55.2288  272.5725 C   0  0  0  0  0  0  0  0  0  0  0  0
   92.9717   54.1866  271.7376 C   0  0  0  0  0  0  0  0  0  0  0  0
   94.0142   53.3146  271.6770 C   0  0  0  0  0  0  0  0  0  0  0  0
   94.0776   52.3444  270.6775 C   0  0  0  0  0  0  0  0  0  0  0  0
  1  2  1  0
  1  7  1  0
  2  3  1  0
  3  4  1  0
  4  5  1  1
  4  6  1  0
  6  7  1  0
  7  8  1  6
  8  9  1  0
  9 10  2  0
  9 11  1  0
 11 12  2  0
 11 16  1  0
 12 13  1  0
 13 14  2  0
 14 15  1  0
 15 16  2  0
 16 17  1  0
 17 18  1  0
 18 19  2  0
 18 20  1  0
 19 27  1  0
 20 21  2  0
 21 22  1  0
 21 26  1  0
 22 23  2  0
 23 24  1  0
 24 25  2  0
 25 26  1  0
 26 27  2  0
 27 28  1  0
 28 29  2  0
 28 37  1  0
 29 30  1  0
 30 31  1  0
 30 35  2  0
 31 32  1  0
 31 33  1  0
 33 34  2  0
 34 35  1  0
 35 36  1  0
 36 37  2  0
M  CHG  1   4   1
M  END
$$$$
