
     RDKit          3D

 37 42  0  0  0  0  0  0  0  0999 V2000
   83.3425   46.1659  266.7338 C   0  0  0  0  0  0  0  0  0  0  0  0
   82.9588   44.7432  266.9786 C   0  0  0  0  0  0  0  0  0  0  0  0
   83.1394   44.3869  268.4571 C   0  0  0  0  0  0  0  0  0  0  0  0
   84.5394   44.6420  268.7881 N   0  0  2  0  0  4  0  0  0  0  0  0
   84.7985   44.1254  270.1208 C   0  0  0  0  0  0  0  0  0  0  0  0
   84.7748   46.0591  268.7191 C   0  0  0  0  0  0  0  0  0  0  0  0
   84.6645   46.5684  267.3138 C   0  0  1  0  0  0  0  0  0  0  0  0
   85.7697   46.0422  266.5125 N   0  0  0  0  0  0  0  0  0  0  0  0
   86.9999   46.7723  266.3999 C   0  0  0  0  0  0  0  0  0  0  0  0
   87.1711   47.6277  267.3076 O   0  0  0  0  0  0  0  0  0  0  0  0
   87.9033   46.4871  265.3111 C   0  0  0  0  0  0  0  0  0  0  0  0
   87.5203   45.5522  264.3252 C   0  0  0  0  0  0  0  0  0  0  0  0
   88.3498   45.2583  263.2644 C   0  0  0  0  0  0  0  0  0  0  0  0
   89.5291   45.8815  263.1918 N   0  0  0  0  0  0  0  0  0  0  0  0
   89.9183   46.7790  264.1221 C   0  0  0  0  0  0  0  0  0  0  0  0
   89.1183   47.1186  265.2214 C   0  0  0  0  0  0  0  0  0  0  0  0
   89.5779   48.0737  266.1351 N   0  0  0  0  0  0  0  0  0  0  0  0
   90.9786   48.2559  266.4468 C   0  0  0  0  0  0  0  0  0  0  0  0
   91.3984   49.4488  267.0274 C   0  0  0  0  0  0  0  0  0  0  0  0
   91.9457   47.3210  266.1718 C   0  0  0  0  0  0  0  0  0  0  0  0
   93.2836   47.5215  266.4461 C   0  0  0  0  0  0  0  0  0  0  0  0
   94.2328   46.6098  266.1794 N   0  0  0  0  0  0  0  0  0  0  0  0
   95.5391   46.8269  266.4565 C   0  0  0  0  0  0  0  0  0  0  0  0
   95.9182   48.0201  267.0318 C   0  0  0  0  0  0  0  0  0  0  0  0
   94.9608   48.9337  267.2983 N   0  0  0  0  0  0  0  0  0  0  0  0
   93.6574   48.7355  267.0298 C   0  0  0  0  0  0  0  0  0  0  0  0
   92.7190   49.7029  267.3225 C   0  0  0  0  0  0  0  0  0  0  0  0
   93.1746   50.9437  267.9289 C   0  0  0  0  0  0  0  0  0  0  0  0
   92.5613   51.3943  269.0944 C   0  0  0  0  0  0  0  0  0  0  0  0
   92.9462   52.5645  269.7206 C   0  0  0  0  0  0  0  0  0  0  0  0
   92.5128   53.1890  270.8301 N   0  0  0  0  0  0  0  0  0  0  0  0
   91.4483   52.7443  271.7071 C   0  0  0  0  0  0  0  0  0  0  0  0
   93.2141   54.3187  271.0343 C   0  0  0  0  0  0  0  0  0  0  0  0
   94.1225   54.4118  270.0184 C   0  0  0  0  0  0  0  0  0  0  0  0
   93.9744   53.3240  269.1818 C   0  0  0  0  0  0  0  0  0  0  0  0
   94.5863   52.9002  268.0430 C   0  0  0  0  0  0  0  0  0  0  0  0
   94.1923   51.7182  267.4170 C   0  0  0  0  0  0  0  0  0  0  0  0
  1  2  1  0
  1  7  1  0
  2  3  1  0
  3  4  1  0
  4  5  1  1
  4  6  1  0
  6  7  1  0
  7  8  1  6
  8  9  1  0
  9 10  2  0
  9 11  1  0
 11 12  2  0
 11 16  1  0
 12 13  1  0
 13 14  2  0
 14 15  1  0
 15 16  2  0
 16 17  1  0
 17 18  1  0
 18 19  2  0
 18 20  1  0
 19 27  1  0
 20 21  2  0
 21 22  1  0
 21 26  1  0
 22 23  2  0
 23 24  1  0
 24 25  2  0
 25 26  1  0
 26 27  2  0
 27 28  1  0
 28 29  2  0
 28 37  1  0
 29 30  1  0
 30 31  1  0
 30 35  2  0
 31 32  1  0
 31 33  1  0
 33 34  2  0
 34 35  1  0
 35 36  1  0
 36 37  2  0
M  CHG  1   4   1
M  END
$$$$
