
     RDKit          3D

 37 42  0  0  0  0  0  0  0  0999 V2000
   83.4123   47.2022  267.0386 C   0  0  0  0  0  0  0  0  0  0  0  0
   82.5671   45.9875  266.8348 C   0  0  0  0  0  0  0  0  0  0  0  0
   82.5550   45.1253  268.1005 C   0  0  0  0  0  0  0  0  0  0  0  0
   83.9445   44.7834  268.3954 N   0  0  2  0  0  4  0  0  0  0  0  0
   83.9593   43.8015  269.4659 C   0  0  0  0  0  0  0  0  0  0  0  0
   84.6405   45.9836  268.7738 C   0  0  0  0  0  0  0  0  0  0  0  0
   84.7666   46.9341  267.6218 C   0  0  1  0  0  0  0  0  0  0  0  0
   85.6674   46.3704  266.6162 N   0  0  0  0  0  0  0  0  0  0  0  0
   87.0884   46.5247  266.7430 C   0  0  0  0  0  0  0  0  0  0  0  0
   87.4647   46.8624  267.8959 O   0  0  0  0  0  0  0  0  0  0  0  0
   87.9373   46.2932  265.5990 C   0  0  0  0  0  0  0  0  0  0  0  0
   87.5842   45.2899  264.6710 C   0  0  0  0  0  0  0  0  0  0  0  0
   88.3626   45.0434  263.5605 C   0  0  0  0  0  0  0  0  0  0  0  0
   89.4633   45.7791  263.3835 N   0  0  0  0  0  0  0  0  0  0  0  0
   89.8226   46.7439  264.2567 C   0  0  0  0  0  0  0  0  0  0  0  0
   89.0714   47.0402  265.4020 C   0  0  0  0  0  0  0  0  0  0  0  0
   89.4935   48.0688  266.2518 N   0  0  0  0  0  0  0  0  0  0  0  0
   90.8845   48.3094  266.5674 C   0  0  0  0  0  0  0  0  0  0  0  0
   91.2557   49.5278  267.1277 C   0  0  0  0  0  0  0  0  0  0  0  0
   91.8876   47.4066  266.3149 C   0  0  0  0  0  0  0  0  0  0  0  0
   93.2153   47.6624  266.5924 C   0  0  0  0  0  0  0  0  0  0  0  0
   94.1997   46.7823  266.3477 N   0  0  0  0  0  0  0  0  0  0  0  0
   95.4952   47.0535  266.6276 C   0  0  0  0  0  0  0  0  0  0  0  0
   95.8259   48.2706  267.1824 C   0  0  0  0  0  0  0  0  0  0  0  0
   94.8333   49.1523  267.4268 N   0  0  0  0  0  0  0  0  0  0  0  0
   93.5398   48.9002  267.1552 C   0  0  0  0  0  0  0  0  0  0  0  0
   92.5641   49.8369  267.4248 C   0  0  0  0  0  0  0  0  0  0  0  0
   92.9691   51.1050  268.0103 C   0  0  0  0  0  0  0  0  0  0  0  0
   92.2950   51.5808  269.1313 C   0  0  0  0  0  0  0  0  0  0  0  0
   92.6298   52.7775  269.7355 C   0  0  0  0  0  0  0  0  0  0  0  0
   92.1348   53.4288  270.8031 N   0  0  0  0  0  0  0  0  0  0  0  0
   91.0391   52.9920  271.6449 C   0  0  0  0  0  0  0  0  0  0  0  0
   92.8058   54.5777  271.0017 C   0  0  0  0  0  0  0  0  0  0  0  0
   93.7582   54.6557  270.0257 C   0  0  0  0  0  0  0  0  0  0  0  0
   93.6681   53.5391  269.2193 C   0  0  0  0  0  0  0  0  0  0  0  0
   94.3392   53.0909  268.1241 C   0  0  0  0  0  0  0  0  0  0  0  0
   93.9954   51.8821  267.5200 C   0  0  0  0  0  0  0  0  0  0  0  0
  1  2  1  0
  1  7  1  0
  2  3  1  0
  3  4  1  0
  4  5  1  1
  4  6  1  0
  6  7  1  0
  7  8  1  6
  8  9  1  0
  9 10  2  0
  9 11  1  0
 11 12  2  0
 11 16  1  0
 12 13  1  0
 13 14  2  0
 14 15  1  0
 15 16  2  0
 16 17  1  0
 17 18  1  0
 18 19  2  0
 18 20  1  0
 19 27  1  0
 20 21  2  0
 21 22  1  0
 21 26  1  0
 22 23  2  0
 23 24  1  0
 24 25  2  0
 25 26  1  0
 26 27  2  0
 27 28  1  0
 28 29  2  0
 28 37  1  0
 29 30  1  0
 30 31  1  0
 30 35  2  0
 31 32  1  0
 31 33  1  0
 33 34  2  0
 34 35  1  0
 35 36  1  0
 36 37  2  0
M  CHG  1   4   1
M  END
$$$$
