
     RDKit          3D

 37 42  0  0  0  0  0  0  0  0999 V2000
   83.9878   46.7668  267.8450 C   0  0  0  0  0  0  0  0  0  0  0  0
   83.0048   45.7825  267.3009 C   0  0  0  0  0  0  0  0  0  0  0  0
   82.9110   44.5580  268.2159 C   0  0  0  0  0  0  0  0  0  0  0  0
   84.2556   43.9945  268.3114 N   0  0  2  0  0  4  0  0  0  0  0  0
   84.1720   42.7192  269.0019 C   0  0  0  0  0  0  0  0  0  0  0  0
   85.0913   44.9234  269.0234 C   0  0  0  0  0  0  0  0  0  0  0  0
   85.3101   46.1814  268.2386 C   0  0  1  0  0  0  0  0  0  0  0  0
   86.1251   45.8891  267.0591 N   0  0  0  0  0  0  0  0  0  0  0  0
   86.9797   46.8953  266.4968 C   0  0  0  0  0  0  0  0  0  0  0  0
   86.8081   48.0426  266.9858 O   0  0  0  0  0  0  0  0  0  0  0  0
   87.9238   46.5366  265.4659 C   0  0  0  0  0  0  0  0  0  0  0  0
   87.5163   45.6676  264.4307 C   0  0  0  0  0  0  0  0  0  0  0  0
   88.3843   45.3077  263.4223 C   0  0  0  0  0  0  0  0  0  0  0  0
   89.6247   45.8025  263.4486 N   0  0  0  0  0  0  0  0  0  0  0  0
   90.0385   46.6347  264.4277 C   0  0  0  0  0  0  0  0  0  0  0  0
   89.2019   47.0361  265.4778 C   0  0  0  0  0  0  0  0  0  0  0  0
   89.6927   47.9184  266.4468 N   0  0  0  0  0  0  0  0  0  0  0  0
   91.1038   48.0865  266.7169 C   0  0  0  0  0  0  0  0  0  0  0  0
   91.5616   49.2995  267.2219 C   0  0  0  0  0  0  0  0  0  0  0  0
   92.0446   47.1170  266.4721 C   0  0  0  0  0  0  0  0  0  0  0  0
   93.3924   47.3026  266.7053 C   0  0  0  0  0  0  0  0  0  0  0  0
   94.3160   46.3572  266.4678 N   0  0  0  0  0  0  0  0  0  0  0  0
   95.6326   46.5602  266.7037 C   0  0  0  0  0  0  0  0  0  0  0  0
   96.0497   47.7742  267.2043 C   0  0  0  0  0  0  0  0  0  0  0  0
   95.1180   48.7217  267.4416 N   0  0  0  0  0  0  0  0  0  0  0  0
   93.8048   48.5379  267.2133 C   0  0  0  0  0  0  0  0  0  0  0  0
   92.8938   49.5402  267.4734 C   0  0  0  0  0  0  0  0  0  0  0  0
   93.3890   50.8018  268.0007 C   0  0  0  0  0  0  0  0  0  0  0  0
   92.7885   51.3464  269.1322 C   0  0  0  0  0  0  0  0  0  0  0  0
   93.2107   52.5411  269.6835 C   0  0  0  0  0  0  0  0  0  0  0  0
   92.7959   53.2497  270.7488 N   0  0  0  0  0  0  0  0  0  0  0  0
   91.7154   52.8978  271.6479 C   0  0  0  0  0  0  0  0  0  0  0  0
   93.5339   54.3664  270.8829 C   0  0  0  0  0  0  0  0  0  0  0  0
   94.4471   54.3639  269.8671 C   0  0  0  0  0  0  0  0  0  0  0  0
   94.2648   53.2300  269.1014 C   0  0  0  0  0  0  0  0  0  0  0  0
   94.8647   52.7138  267.9949 C   0  0  0  0  0  0  0  0  0  0  0  0
   94.4330   51.5077  267.4445 C   0  0  0  0  0  0  0  0  0  0  0  0
  1  2  1  0
  1  7  1  0
  2  3  1  0
  3  4  1  0
  4  5  1  1
  4  6  1  0
  6  7  1  0
  7  8  1  6
  8  9  1  0
  9 10  2  0
  9 11  1  0
 11 12  2  0
 11 16  1  0
 12 13  1  0
 13 14  2  0
 14 15  1  0
 15 16  2  0
 16 17  1  0
 17 18  1  0
 18 19  2  0
 18 20  1  0
 19 27  1  0
 20 21  2  0
 21 22  1  0
 21 26  1  0
 22 23  2  0
 23 24  1  0
 24 25  2  0
 25 26  1  0
 26 27  2  0
 27 28  1  0
 28 29  2  0
 28 37  1  0
 29 30  1  0
 30 31  1  0
 30 35  2  0
 31 32  1  0
 31 33  1  0
 33 34  2  0
 34 35  1  0
 35 36  1  0
 36 37  2  0
M  CHG  1   4   1
M  END
$$$$
