
     RDKit          3D

 37 42  0  0  0  0  0  0  0  0999 V2000
   91.3793   51.7881  275.8338 C   0  0  0  0  0  0  0  0  0  0  0  0
   92.1724   52.6279  276.7809 C   0  0  0  0  0  0  0  0  0  0  0  0
   91.3454   53.8266  277.2550 C   0  0  0  0  0  0  0  0  0  0  0  0
   90.9512   54.5702  276.0608 N   0  0  2  0  0  4  0  0  0  0  0  0
   90.3415   55.8209  276.4781 C   0  0  0  0  0  0  0  0  0  0  0  0
   90.0319   53.7648  275.3030 C   0  0  0  0  0  0  0  0  0  0  0  0
   90.7017   52.5500  274.7354 C   0  0  1  0  0  0  0  0  0  0  0  0
   91.6624   52.9537  273.7085 N   0  0  0  0  0  0  0  0  0  0  0  0
   91.6226   52.3629  272.4014 C   0  0  0  0  0  0  0  0  0  0  0  0
   90.6372   51.6020  272.2146 O   0  0  0  0  0  0  0  0  0  0  0  0
   92.6610   52.6688  271.4469 C   0  0  0  0  0  0  0  0  0  0  0  0
   93.5508   53.7316  271.7140 C   0  0  0  0  0  0  0  0  0  0  0  0
   94.5617   54.0503  270.8329 C   0  0  0  0  0  0  0  0  0  0  0  0
   94.6791   53.3270  269.7162 N   0  0  0  0  0  0  0  0  0  0  0  0
   93.8406   52.3062  269.4379 C   0  0  0  0  0  0  0  0  0  0  0  0
   92.7957   51.9355  270.2948 C   0  0  0  0  0  0  0  0  0  0  0  0
   91.9786   50.8526  269.9515 N   0  0  0  0  0  0  0  0  0  0  0  0
   92.3757   49.8354  269.0028 C   0  0  0  0  0  0  0  0  0  0  0  0
   91.4202   48.9519  268.5104 C   0  0  0  0  0  0  0  0  0  0  0  0
   93.6678   49.6616  268.5722 C   0  0  0  0  0  0  0  0  0  0  0  0
   94.0379   48.6662  267.6904 C   0  0  0  0  0  0  0  0  0  0  0  0
   95.3001   48.4927  267.2661 N   0  0  0  0  0  0  0  0  0  0  0  0
   95.6412   47.5101  266.4011 C   0  0  0  0  0  0  0  0  0  0  0  0
   94.6682   46.6535  265.9340 C   0  0  0  0  0  0  0  0  0  0  0  0
   93.4008   46.8315  266.3631 N   0  0  0  0  0  0  0  0  0  0  0  0
   93.0429   47.8027  267.2227 C   0  0  0  0  0  0  0  0  0  0  0  0
   91.7324   47.9408  267.6295 C   0  0  0  0  0  0  0  0  0  0  0  0
   90.7464   47.0090  267.1055 C   0  0  0  0  0  0  0  0  0  0  0  0
   90.0236   46.2163  267.9924 C   0  0  0  0  0  0  0  0  0  0  0  0
   89.0729   45.3115  267.5602 C   0  0  0  0  0  0  0  0  0  0  0  0
   88.2663   44.4559  268.2131 N   0  0  0  0  0  0  0  0  0  0  0  0
   88.1974   44.2639  269.6478 C   0  0  0  0  0  0  0  0  0  0  0  0
   87.5029   43.7748  267.3396 C   0  0  0  0  0  0  0  0  0  0  0  0
   87.8384   44.2151  266.0908 C   0  0  0  0  0  0  0  0  0  0  0  0
   88.8205   45.1786  266.2025 C   0  0  0  0  0  0  0  0  0  0  0  0
   89.5167   45.9446  265.3199 C   0  0  0  0  0  0  0  0  0  0  0  0
   90.4745   46.8554  265.7638 C   0  0  0  0  0  0  0  0  0  0  0  0
  1  2  1  0
  1  7  1  0
  2  3  1  0
  3  4  1  0
  4  5  1  1
  4  6  1  0
  6  7  1  0
  7  8  1  6
  8  9  1  0
  9 10  2  0
  9 11  1  0
 11 12  2  0
 11 16  1  0
 12 13  1  0
 13 14  2  0
 14 15  1  0
 15 16  2  0
 16 17  1  0
 17 18  1  0
 18 19  2  0
 18 20  1  0
 19 27  1  0
 20 21  2  0
 21 22  1  0
 21 26  1  0
 22 23  2  0
 23 24  1  0
 24 25  2  0
 25 26  1  0
 26 27  2  0
 27 28  1  0
 28 29  2  0
 28 37  1  0
 29 30  1  0
 30 31  1  0
 30 35  2  0
 31 32  1  0
 31 33  1  0
 33 34  2  0
 34 35  1  0
 35 36  1  0
 36 37  2  0
M  CHG  1   4   1
M  END
$$$$
