
     RDKit          3D

 37 42  0  0  0  0  0  0  0  0999 V2000
   83.9949   47.3514  267.2957 C   0  0  0  0  0  0  0  0  0  0  0  0
   82.9666   46.2850  267.1039 C   0  0  0  0  0  0  0  0  0  0  0  0
   82.8190   45.4483  268.3781 C   0  0  0  0  0  0  0  0  0  0  0  0
   84.1367   44.8922  268.6766 N   0  0  2  0  0  4  0  0  0  0  0  0
   83.9965   43.9311  269.7568 C   0  0  0  0  0  0  0  0  0  0  0  0
   85.0157   45.9698  269.0430 C   0  0  0  0  0  0  0  0  0  0  0  0
   85.2900   46.8766  267.8817 C   0  0  1  0  0  0  0  0  0  0  0  0
   86.0879   46.1666  266.8818 N   0  0  0  0  0  0  0  0  0  0  0  0
   87.5058   46.0232  267.0495 C   0  0  0  0  0  0  0  0  0  0  0  0
   87.8811   46.0282  268.2511 O   0  0  0  0  0  0  0  0  0  0  0  0
   88.3530   45.8905  265.8886 C   0  0  0  0  0  0  0  0  0  0  0  0
   87.9495   45.0424  264.8347 C   0  0  0  0  0  0  0  0  0  0  0  0
   88.7250   44.8948  263.7049 C   0  0  0  0  0  0  0  0  0  0  0  0
   89.8717   45.5759  263.6312 N   0  0  0  0  0  0  0  0  0  0  0  0
   90.2796   46.3927  264.6257 C   0  0  0  0  0  0  0  0  0  0  0  0
   89.5340   46.5831  265.7968 C   0  0  0  0  0  0  0  0  0  0  0  0
   90.0088   47.4621  266.7767 N   0  0  0  0  0  0  0  0  0  0  0  0
   91.4161   47.7240  266.9853 C   0  0  0  0  0  0  0  0  0  0  0  0
   91.8132   48.9626  267.4796 C   0  0  0  0  0  0  0  0  0  0  0  0
   92.4081   46.8218  266.6906 C   0  0  0  0  0  0  0  0  0  0  0  0
   93.7494   47.0971  266.8652 C   0  0  0  0  0  0  0  0  0  0  0  0
   94.7232   46.2178  266.5789 N   0  0  0  0  0  0  0  0  0  0  0  0
   96.0323   46.5084  266.7577 C   0  0  0  0  0  0  0  0  0  0  0  0
   96.3887   47.7452  267.2495 C   0  0  0  0  0  0  0  0  0  0  0  0
   95.4067   48.6260  267.5359 N   0  0  0  0  0  0  0  0  0  0  0  0
   94.1000   48.3549  267.3647 C   0  0  0  0  0  0  0  0  0  0  0  0
   93.1360   49.2916  267.6735 C   0  0  0  0  0  0  0  0  0  0  0  0
   93.5682   50.5810  268.1890 C   0  0  0  0  0  0  0  0  0  0  0  0
   92.9650   51.0899  269.3356 C   0  0  0  0  0  0  0  0  0  0  0  0
   93.3288   52.3082  269.8768 C   0  0  0  0  0  0  0  0  0  0  0  0
   92.8995   52.9917  270.9525 N   0  0  0  0  0  0  0  0  0  0  0  0
   91.8648   52.5768  271.8784 C   0  0  0  0  0  0  0  0  0  0  0  0
   93.5726   54.1506  271.0687 C   0  0  0  0  0  0  0  0  0  0  0  0
   94.4584   54.2016  270.0302 C   0  0  0  0  0  0  0  0  0  0  0  0
   94.3249   53.0582  269.2687 C   0  0  0  0  0  0  0  0  0  0  0  0
   94.9265   52.5777  268.1471 C   0  0  0  0  0  0  0  0  0  0  0  0
   94.5538   51.3474  267.6070 C   0  0  0  0  0  0  0  0  0  0  0  0
  1  2  1  0
  1  7  1  0
  2  3  1  0
  3  4  1  0
  4  5  1  1
  4  6  1  0
  6  7  1  0
  7  8  1  6
  8  9  1  0
  9 10  2  0
  9 11  1  0
 11 12  2  0
 11 16  1  0
 12 13  1  0
 13 14  2  0
 14 15  1  0
 15 16  2  0
 16 17  1  0
 17 18  1  0
 18 19  2  0
 18 20  1  0
 19 27  1  0
 20 21  2  0
 21 22  1  0
 21 26  1  0
 22 23  2  0
 23 24  1  0
 24 25  2  0
 25 26  1  0
 26 27  2  0
 27 28  1  0
 28 29  2  0
 28 37  1  0
 29 30  1  0
 30 31  1  0
 30 35  2  0
 31 32  1  0
 31 33  1  0
 33 34  2  0
 34 35  1  0
 35 36  1  0
 36 37  2  0
M  CHG  1   4   1
M  END
$$$$
