
     RDKit          3D

 37 42  0  0  0  0  0  0  0  0999 V2000
   92.5746   54.8665  272.4085 C   0  0  0  0  0  0  0  0  0  0  0  0
   92.2512   56.2100  271.8410 C   0  0  0  0  0  0  0  0  0  0  0  0
   90.7346   56.4141  271.7791 C   0  0  0  0  0  0  0  0  0  0  0  0
   90.1925   55.3295  270.9641 N   0  0  2  0  0  4  0  0  0  0  0  0
   88.7878   55.6011  270.7125 C   0  0  0  0  0  0  0  0  0  0  0  0
   90.3690   54.0914  271.6741 C   0  0  0  0  0  0  0  0  0  0  0  0
   91.8178   53.7274  271.7955 C   0  0  1  0  0  0  0  0  0  0  0  0
   92.3527   53.3939  270.4751 N   0  0  0  0  0  0  0  0  0  0  0  0
   92.4862   52.0244  270.0681 C   0  0  0  0  0  0  0  0  0  0  0  0
   91.7439   51.2287  270.7011 O   0  0  0  0  0  0  0  0  0  0  0  0
   93.4132   51.6781  269.0175 C   0  0  0  0  0  0  0  0  0  0  0  0
   94.6664   52.3256  268.9636 C   0  0  0  0  0  0  0  0  0  0  0  0
   95.5838   52.0175  267.9822 C   0  0  0  0  0  0  0  0  0  0  0  0
   95.2569   51.0884  267.0799 N   0  0  0  0  0  0  0  0  0  0  0  0
   94.0649   50.4554  267.1098 C   0  0  0  0  0  0  0  0  0  0  0  0
   93.0934   50.7257  268.0828 C   0  0  0  0  0  0  0  0  0  0  0  0
   91.8880   50.0150  268.0645 N   0  0  0  0  0  0  0  0  0  0  0  0
   91.7226   48.7622  267.3604 C   0  0  0  0  0  0  0  0  0  0  0  0
   90.4637   48.1721  267.3054 C   0  0  0  0  0  0  0  0  0  0  0  0
   92.7554   48.0877  266.7577 C   0  0  0  0  0  0  0  0  0  0  0  0
   92.5885   46.8769  266.1163 C   0  0  0  0  0  0  0  0  0  0  0  0
   93.5956   46.2138  265.5251 N   0  0  0  0  0  0  0  0  0  0  0  0
   93.4098   45.0277  264.9016 C   0  0  0  0  0  0  0  0  0  0  0  0
   92.1489   44.4731  264.8666 C   0  0  0  0  0  0  0  0  0  0  0  0
   91.1396   45.1430  265.4622 N   0  0  0  0  0  0  0  0  0  0  0  0
   91.3053   46.3232  266.0867 C   0  0  0  0  0  0  0  0  0  0  0  0
   90.2391   46.9663  266.6797 C   0  0  0  0  0  0  0  0  0  0  0  0
   88.9303   46.3359  266.6131 C   0  0  0  0  0  0  0  0  0  0  0  0
   88.5753   45.4053  267.5855 C   0  0  0  0  0  0  0  0  0  0  0  0
   87.3479   44.7704  267.5799 C   0  0  0  0  0  0  0  0  0  0  0  0
   86.7916   43.8561  268.3943 N   0  0  0  0  0  0  0  0  0  0  0  0
   87.3997   43.2700  269.5718 C   0  0  0  0  0  0  0  0  0  0  0  0
   85.5558   43.5403  267.9669 C   0  0  0  0  0  0  0  0  0  0  0  0
   85.3226   44.2807  266.8429 C   0  0  0  0  0  0  0  0  0  0  0  0
   86.4311   45.0599  266.5798 C   0  0  0  0  0  0  0  0  0  0  0  0
   86.7596   45.9667  265.6203 C   0  0  0  0  0  0  0  0  0  0  0  0
   88.0001   46.6031  265.6328 C   0  0  0  0  0  0  0  0  0  0  0  0
  1  2  1  0
  1  7  1  0
  2  3  1  0
  3  4  1  0
  4  5  1  1
  4  6  1  0
  6  7  1  0
  7  8  1  6
  8  9  1  0
  9 10  2  0
  9 11  1  0
 11 12  2  0
 11 16  1  0
 12 13  1  0
 13 14  2  0
 14 15  1  0
 15 16  2  0
 16 17  1  0
 17 18  1  0
 18 19  2  0
 18 20  1  0
 19 27  1  0
 20 21  2  0
 21 22  1  0
 21 26  1  0
 22 23  2  0
 23 24  1  0
 24 25  2  0
 25 26  1  0
 26 27  2  0
 27 28  1  0
 28 29  2  0
 28 37  1  0
 29 30  1  0
 30 31  1  0
 30 35  2  0
 31 32  1  0
 31 33  1  0
 33 34  2  0
 34 35  1  0
 35 36  1  0
 36 37  2  0
M  CHG  1   4   1
M  END
$$$$
