
     RDKit          3D

 24 27  0  0  0  0  0  0  0  0999 V2000
  -21.5623  -17.8098   12.4227 C   0  0  0  0  0  0  0  0  0  0  0  0
  -23.7594  -17.0649   12.0932 C   0  0  0  0  0  0  0  0  0  0  0  0
  -25.2413  -18.9146   11.2515 C   0  0  0  0  0  0  0  0  0  0  0  0
  -19.0816  -18.2780   13.1123 C   0  0  0  0  0  0  0  0  0  0  0  0
  -17.9540  -17.5286   13.4353 C   0  0  0  0  0  0  0  0  0  0  0  0
  -21.2134  -24.9902   10.7323 N   0  0  0  0  0  0  0  0  0  0  0  0
  -21.9236  -24.3154   10.0236 C   0  0  0  0  0  0  0  0  0  0  0  0
  -22.8850  -23.4292    9.0849 C   0  0  0  0  0  0  0  0  0  0  0  0
  -23.0937  -22.3400    9.7323 C   0  0  0  0  0  0  0  0  0  0  0  0
  -23.0348  -21.1870    8.7110 C   0  0  0  0  0  0  0  0  0  0  0  0
  -22.8184  -21.4914    7.4842 C   0  0  0  0  0  0  0  0  0  0  0  0
  -22.6277  -22.7519    6.8968 C   0  0  0  0  0  0  0  0  0  0  0  0
  -22.6703  -23.8945    7.8787 C   0  0  0  0  0  0  0  0  0  0  0  0
  -23.1717  -21.9257   11.1050 C   0  0  0  0  0  0  0  0  0  0  0  0
  -23.7125  -20.5762   11.2225 N   0  0  0  0  0  0  0  0  0  0  0  0
  -23.1341  -19.4358   11.6802 C   0  0  0  0  0  0  0  0  0  0  0  0
  -21.7099  -19.2886   12.0485 C   0  0  0  0  0  0  0  0  0  0  0  0
  -22.3112  -16.9839   12.4335 C   0  0  0  0  0  0  0  0  0  0  0  0
  -24.0567  -18.3046   11.7332 C   0  0  0  0  0  0  0  0  0  0  0  0
  -25.0334  -20.2071   10.9492 C   0  0  0  0  0  0  0  0  0  0  0  0
  -20.0723  -17.5543   12.7834 C   0  0  0  0  0  0  0  0  0  0  0  0
  -18.3733  -16.1939   13.2353 N   0  0  0  0  0  0  0  0  0  0  0  0
  -19.6168  -16.2627   12.8638 N   0  0  0  0  0  0  0  0  0  0  0  0
  -16.6394  -17.8985   13.7801 N   0  0  0  0  0  0  0  0  0  0  0  0
  1 17  2  0
 18  1  1  0
  1 21  1  0
  2 18  2  0
 19  2  1  0
  3 19  1  0
 20  3  2  0
  4  5  1  0
 21  4  2  0
  5 22  2  0
  5 24  1  0
  7  6  3  0
  8  7  1  0
  9  8  2  0
  8 13  1  0
  9 10  1  0
 14  9  1  0
 10 11  2  0
 11 12  1  0
 13 12  2  0
 14 15  1  6
 15 16  1  0
 15 20  1  0
 16 17  1  0
 16 19  2  0
 21 23  1  0
 22 23  1  0
M  END
$$$$
