
     RDKit          3D

 24 27  0  0  0  0  0  0  0  0999 V2000
  -11.8826  -10.7844   23.3950 C   0  0  0  0  0  0  0  0  0  0  0  0
  -11.8662  -11.5498   25.6322 C   0  0  0  0  0  0  0  0  0  0  0  0
  -14.1452  -12.0806   26.4786 C   0  0  0  0  0  0  0  0  0  0  0  0
  -11.5014   -9.5001   21.1949 C   0  0  0  0  0  0  0  0  0  0  0  0
  -10.3674   -9.1327   20.4397 C   0  0  0  0  0  0  0  0  0  0  0  0
  -19.3395  -10.3385   21.6021 N   0  0  0  0  0  0  0  0  0  0  0  0
  -18.7206  -11.3332   21.8758 C   0  0  0  0  0  0  0  0  0  0  0  0
  -17.9721  -12.5021   22.2178 C   0  0  0  0  0  0  0  0  0  0  0  0
  -16.8507  -12.5025   22.9151 C   0  0  0  0  0  0  0  0  0  0  0  0
  -16.0748  -13.6799   22.9169 C   0  0  0  0  0  0  0  0  0  0  0  0
  -16.4968  -14.7893   22.2127 C   0  0  0  0  0  0  0  0  0  0  0  0
  -17.6872  -14.7654   21.4867 C   0  0  0  0  0  0  0  0  0  0  0  0
  -18.4552  -13.6353   21.4638 C   0  0  0  0  0  0  0  0  0  0  0  0
  -16.4220  -11.3878   23.7292 C   0  0  0  0  0  0  0  0  0  0  0  0
  -15.2978  -11.5364   24.6044 N   0  0  0  0  0  0  0  0  0  0  0  0
  -13.9943  -11.3261   24.4354 C   0  0  0  0  0  0  0  0  0  0  0  0
  -13.2498  -10.8882   23.3529 C   0  0  0  0  0  0  0  0  0  0  0  0
  -11.1563  -11.1147   24.5366 C   0  0  0  0  0  0  0  0  0  0  0  0
  -13.2312  -11.6344   25.5387 C   0  0  0  0  0  0  0  0  0  0  0  0
  -15.3861  -12.0145   25.8831 C   0  0  0  0  0  0  0  0  0  0  0  0
  -11.1208  -10.2472   22.2704 C   0  0  0  0  0  0  0  0  0  0  0  0
   -9.3353   -9.6880   21.1162 N   0  0  0  0  0  0  0  0  0  0  0  0
   -9.7644  -10.3402   22.1719 N   0  0  0  0  0  0  0  0  0  0  0  0
  -10.2720   -8.3832   19.2632 N   0  0  0  0  0  0  0  0  0  0  0  0
  1 17  2  0
 18  1  1  0
  1 21  1  0
  2 18  2  0
 19  2  1  0
  3 19  1  0
 20  3  2  0
  4  5  1  0
 21  4  2  0
  5 22  2  0
  5 24  1  0
  7  6  3  0
  8  7  1  0
  9  8  2  0
  8 13  1  0
  9 10  1  0
 14  9  1  0
 10 11  2  0
 11 12  1  0
 13 12  2  0
 15 14  1  0
 15 16  1  0
 15 20  1  0
 16 17  1  0
 16 19  2  0
 21 23  1  0
 22 23  1  0
M  END
$$$$
