
     RDKit          3D

 24 27  0  0  0  0  0  0  0  0999 V2000
  -20.1249  -17.7621   13.8588 C   0  0  0  0  0  0  0  0  0  0  0  0
  -21.5067  -18.1182   15.7442 C   0  0  0  0  0  0  0  0  0  0  0  0
  -23.7940  -18.8770   15.1244 C   0  0  0  0  0  0  0  0  0  0  0  0
  -18.3671  -17.1759   12.0695 C   0  0  0  0  0  0  0  0  0  0  0  0
  -17.0887  -16.5785   12.0872 C   0  0  0  0  0  0  0  0  0  0  0  0
  -26.1922  -19.4223    8.5524 N   0  0  0  0  0  0  0  0  0  0  0  0
  -25.4188  -20.0685    9.2094 C   0  0  0  0  0  0  0  0  0  0  0  0
  -24.5156  -20.8558    9.9892 C   0  0  0  0  0  0  0  0  0  0  0  0
  -23.6911  -20.3754   10.9019 C   0  0  0  0  0  0  0  0  0  0  0  0
  -22.6610  -21.2172   11.3695 C   0  0  0  0  0  0  0  0  0  0  0  0
  -22.5413  -22.5028   10.8820 C   0  0  0  0  0  0  0  0  0  0  0  0
  -23.4271  -22.9885    9.9207 C   0  0  0  0  0  0  0  0  0  0  0  0
  -24.4309  -22.1917    9.4467 C   0  0  0  0  0  0  0  0  0  0  0  0
  -23.8382  -19.0648   11.4932 C   0  0  0  0  0  0  0  0  0  0  0  0
  -23.5164  -18.8670   12.8749 N   0  0  0  0  0  0  0  0  0  0  0  0
  -22.4049  -18.4696   13.4902 C   0  0  0  0  0  0  0  0  0  0  0  0
  -21.1550  -18.1033   13.0197 C   0  0  0  0  0  0  0  0  0  0  0  0
  -20.2752  -17.7628   15.2435 C   0  0  0  0  0  0  0  0  0  0  0  0
  -22.5031  -18.4493   14.8629 C   0  0  0  0  0  0  0  0  0  0  0  0
  -24.3809  -19.1268   13.9029 C   0  0  0  0  0  0  0  0  0  0  0  0
  -18.8374  -17.3037   13.3431 C   0  0  0  0  0  0  0  0  0  0  0  0
  -16.8486  -16.3688   13.4023 N   0  0  0  0  0  0  0  0  0  0  0  0
  -17.8524  -16.7924   14.1348 N   0  0  0  0  0  0  0  0  0  0  0  0
  -16.2269  -16.2620   11.0325 N   0  0  0  0  0  0  0  0  0  0  0  0
  1 17  2  0
 18  1  1  0
  1 21  1  0
  2 18  2  0
 19  2  1  0
  3 19  1  0
 20  3  2  0
  4  5  1  0
 21  4  2  0
  5 22  2  0
  5 24  1  0
  7  6  3  0
  8  7  1  0
  9  8  2  0
  8 13  1  0
  9 10  1  0
 14  9  1  0
 10 11  2  0
 11 12  1  0
 13 12  2  0
 15 14  1  0
 15 16  1  0
 15 20  1  0
 16 17  1  0
 16 19  2  0
 21 23  1  0
 22 23  1  0
M  END
$$$$
