
     RDKit          3D

 24 27  0  0  0  0  0  0  0  0999 V2000
  -13.7071  -10.5456   23.5429 C   0  0  0  0  0  0  0  0  0  0  0  0
  -15.3465  -11.6967   24.7586 C   0  0  0  0  0  0  0  0  0  0  0  0
  -15.2013  -11.1805   27.2160 C   0  0  0  0  0  0  0  0  0  0  0  0
  -12.0636   -9.4024   21.8576 C   0  0  0  0  0  0  0  0  0  0  0  0
  -11.8034   -9.4559   20.4912 C   0  0  0  0  0  0  0  0  0  0  0  0
  -11.6019   -5.5326   29.1392 N   0  0  0  0  0  0  0  0  0  0  0  0
  -11.8975   -6.6376   29.5312 C   0  0  0  0  0  0  0  0  0  0  0  0
  -12.2712   -8.1122   30.0571 C   0  0  0  0  0  0  0  0  0  0  0  0
  -12.2608   -8.8645   29.0165 C   0  0  0  0  0  0  0  0  0  0  0  0
  -11.5936  -10.1930   29.4240 C   0  0  0  0  0  0  0  0  0  0  0  0
  -11.2067  -10.3141   30.6405 C   0  0  0  0  0  0  0  0  0  0  0  0
  -11.3033   -9.4025   31.7036 C   0  0  0  0  0  0  0  0  0  0  0  0
  -11.9429   -8.0912   31.3257 C   0  0  0  0  0  0  0  0  0  0  0  0
  -12.5194   -8.7263   27.6107 C   0  0  0  0  0  0  0  0  0  0  0  0
  -13.4782   -9.7227   27.1467 N   0  0  0  0  0  0  0  0  0  0  0  0
  -13.7688  -10.1415   25.8878 C   0  0  0  0  0  0  0  0  0  0  0  0
  -13.0344   -9.7491   24.6662 C   0  0  0  0  0  0  0  0  0  0  0  0
  -14.5536  -11.2705   23.5714 C   0  0  0  0  0  0  0  0  0  0  0  0
  -14.8779  -11.0908   25.8395 C   0  0  0  0  0  0  0  0  0  0  0  0
  -14.3894  -10.4078   27.9568 C   0  0  0  0  0  0  0  0  0  0  0  0
  -12.9622  -10.2249   22.2171 C   0  0  0  0  0  0  0  0  0  0  0  0
  -12.6687  -10.4724   20.0275 N   0  0  0  0  0  0  0  0  0  0  0  0
  -13.3276  -10.8827   21.0700 N   0  0  0  0  0  0  0  0  0  0  0  0
  -10.8611   -8.7928   19.6811 N   0  0  0  0  0  0  0  0  0  0  0  0
  1 17  2  0
 18  1  1  0
  1 21  1  0
  2 18  2  0
 19  2  1  0
  3 19  1  0
 20  3  2  0
  4  5  1  0
 21  4  2  0
  5 22  2  0
  5 24  1  0
  7  6  3  0
  8  7  1  0
  9  8  2  0
  8 13  1  0
  9 10  1  0
 14  9  1  0
 10 11  2  0
 11 12  1  0
 13 12  2  0
 14 15  1  6
 15 16  1  0
 15 20  1  0
 16 17  1  0
 16 19  2  0
 21 23  1  0
 22 23  1  0
M  END
$$$$
