
     RDKit          3D

 24 27  0  0  0  0  0  0  0  0999 V2000
  -20.5196  -17.1630   12.9365 C   0  0  0  0  0  0  0  0  0  0  0  0
  -22.7019  -16.3334   13.1361 C   0  0  0  0  0  0  0  0  0  0  0  0
  -24.4082  -18.0756   12.5200 C   0  0  0  0  0  0  0  0  0  0  0  0
  -17.9712  -17.7507   13.0304 C   0  0  0  0  0  0  0  0  0  0  0  0
  -16.7692  -17.0602   13.1570 C   0  0  0  0  0  0  0  0  0  0  0  0
  -21.9270  -24.7371   11.6389 N   0  0  0  0  0  0  0  0  0  0  0  0
  -22.8057  -23.9850   11.2862 C   0  0  0  0  0  0  0  0  0  0  0  0
  -23.9801  -22.9968   10.8017 C   0  0  0  0  0  0  0  0  0  0  0  0
  -23.5023  -21.8100   10.9118 C   0  0  0  0  0  0  0  0  0  0  0  0
  -23.9630  -21.0188    9.6718 C   0  0  0  0  0  0  0  0  0  0  0  0
  -24.6984  -21.6299    8.8173 C   0  0  0  0  0  0  0  0  0  0  0  0
  -25.1770  -22.9494    8.8324 C   0  0  0  0  0  0  0  0  0  0  0  0
  -24.7299  -23.7462   10.0310 C   0  0  0  0  0  0  0  0  0  0  0  0
  -22.5504  -21.1277   11.7427 C   0  0  0  0  0  0  0  0  0  0  0  0
  -22.9945  -19.7747   12.0582 N   0  0  0  0  0  0  0  0  0  0  0  0
  -22.2828  -18.6865   12.4506 C   0  0  0  0  0  0  0  0  0  0  0  0
  -20.8078  -18.6070   12.5113 C   0  0  0  0  0  0  0  0  0  0  0  0
  -21.2124  -16.3186   13.1602 C   0  0  0  0  0  0  0  0  0  0  0  0
  -23.1228  -17.5355   12.7719 C   0  0  0  0  0  0  0  0  0  0  0  0
  -24.3260  -19.3491   12.0998 C   0  0  0  0  0  0  0  0  0  0  0  0
  -18.9773  -16.9769   12.9825 C   0  0  0  0  0  0  0  0  0  0  0  0
  -17.1638  -15.7032   13.1573 N   0  0  0  0  0  0  0  0  0  0  0  0
  -18.4600  -15.7087   13.0615 N   0  0  0  0  0  0  0  0  0  0  0  0
  -15.4285  -17.4912   13.1773 N   0  0  0  0  0  0  0  0  0  0  0  0
  1 17  2  0
 18  1  1  0
  1 21  1  0
  2 18  2  0
 19  2  1  0
  3 19  1  0
 20  3  2  0
  4  5  1  0
 21  4  2  0
  5 22  2  0
  5 24  1  0
  7  6  3  0
  8  7  1  0
  9  8  2  0
  8 13  1  0
  9 10  1  0
 14  9  1  0
 10 11  2  0
 11 12  1  0
 13 12  2  0
 14 15  1  6
 15 16  1  0
 15 20  1  0
 16 17  1  0
 16 19  2  0
 21 23  1  0
 22 23  1  0
M  END
$$$$
