
     RDKit          3D

 24 27  0  0  0  0  0  0  0  0999 V2000
  -13.1572  -10.8467   24.9768 C   0  0  0  0  0  0  0  0  0  0  0  0
  -12.9357  -12.2924   26.8075 C   0  0  0  0  0  0  0  0  0  0  0  0
  -12.8283  -11.0216   28.9754 C   0  0  0  0  0  0  0  0  0  0  0  0
  -13.6913   -9.6523   22.7104 C   0  0  0  0  0  0  0  0  0  0  0  0
  -13.5936   -9.9481   21.3538 C   0  0  0  0  0  0  0  0  0  0  0  0
  -13.2314   -3.8721   27.6515 N   0  0  0  0  0  0  0  0  0  0  0  0
  -12.7573   -4.6365   28.4596 C   0  0  0  0  0  0  0  0  0  0  0  0
  -12.1278   -5.6693   29.5215 C   0  0  0  0  0  0  0  0  0  0  0  0
  -12.2873   -6.8353   29.0077 C   0  0  0  0  0  0  0  0  0  0  0  0
  -10.9956   -7.6312   29.2796 C   0  0  0  0  0  0  0  0  0  0  0  0
  -10.0623   -7.0427   29.9331 C   0  0  0  0  0  0  0  0  0  0  0  0
  -10.0279   -5.7457   30.4687 C   0  0  0  0  0  0  0  0  0  0  0  0
  -11.2769   -4.9443   30.2056 C   0  0  0  0  0  0  0  0  0  0  0  0
  -13.2229   -7.4852   28.1333 C   0  0  0  0  0  0  0  0  0  0  0  0
  -13.0439   -8.9326   28.1455 N   0  0  0  0  0  0  0  0  0  0  0  0
  -13.0964   -9.8320   27.1292 C   0  0  0  0  0  0  0  0  0  0  0  0
  -13.2180   -9.4942   25.6951 C   0  0  0  0  0  0  0  0  0  0  0  0
  -13.0452  -11.8800   25.3801 C   0  0  0  0  0  0  0  0  0  0  0  0
  -12.9656  -11.2157   27.5787 C   0  0  0  0  0  0  0  0  0  0  0  0
  -12.8601   -9.7157   29.2896 C   0  0  0  0  0  0  0  0  0  0  0  0
  -13.2337  -10.5799   23.4477 C   0  0  0  0  0  0  0  0  0  0  0  0
  -12.9704  -11.2163   21.3341 N   0  0  0  0  0  0  0  0  0  0  0  0
  -12.7889  -11.5438   22.5787 N   0  0  0  0  0  0  0  0  0  0  0  0
  -13.9017   -9.2032   20.1987 N   0  0  0  0  0  0  0  0  0  0  0  0
  1 17  2  0
 18  1  1  0
  1 21  1  0
  2 18  2  0
 19  2  1  0
  3 19  1  0
 20  3  2  0
  4  5  1  0
 21  4  2  0
  5 22  2  0
  5 24  1  0
  7  6  3  0
  8  7  1  0
  9  8  2  0
  8 13  1  0
  9 10  1  0
 14  9  1  0
 10 11  2  0
 11 12  1  0
 13 12  2  0
 14 15  1  6
 15 16  1  0
 15 20  1  0
 16 17  1  0
 16 19  2  0
 21 23  1  0
 22 23  1  0
M  END
$$$$
