
     RDKit          3D

 24 27  0  0  0  0  0  0  0  0999 V2000
  -12.6808   -8.3818   26.1365 C   0  0  0  0  0  0  0  0  0  0  0  0
  -13.1531   -6.5515   27.5570 C   0  0  0  0  0  0  0  0  0  0  0  0
  -12.9968   -7.1463   29.9681 C   0  0  0  0  0  0  0  0  0  0  0  0
  -12.3453  -10.1445   24.2884 C   0  0  0  0  0  0  0  0  0  0  0  0
  -12.5187  -10.1648   22.8881 C   0  0  0  0  0  0  0  0  0  0  0  0
  -11.8681  -14.1892   31.4205 N   0  0  0  0  0  0  0  0  0  0  0  0
  -11.2204  -13.1768   31.3667 C   0  0  0  0  0  0  0  0  0  0  0  0
  -10.4332  -11.9859   31.2899 C   0  0  0  0  0  0  0  0  0  0  0  0
  -10.7463  -10.9195   30.5769 C   0  0  0  0  0  0  0  0  0  0  0  0
   -9.7430   -9.9527   30.3597 C   0  0  0  0  0  0  0  0  0  0  0  0
   -8.4823  -10.1303   30.8924 C   0  0  0  0  0  0  0  0  0  0  0  0
   -8.1771  -11.2637   31.6453 C   0  0  0  0  0  0  0  0  0  0  0  0
   -9.1294  -12.2185   31.8662 C   0  0  0  0  0  0  0  0  0  0  0  0
  -12.0773  -10.6628   30.0754 C   0  0  0  0  0  0  0  0  0  0  0  0
  -12.4542   -9.3313   29.7057 N   0  0  0  0  0  0  0  0  0  0  0  0
  -12.6225   -8.7408   28.5246 C   0  0  0  0  0  0  0  0  0  0  0  0
  -12.4940   -9.1975   27.2235 C   0  0  0  0  0  0  0  0  0  0  0  0
  -13.0136   -7.0366   26.2769 C   0  0  0  0  0  0  0  0  0  0  0  0
  -12.9570   -7.4083   28.6089 C   0  0  0  0  0  0  0  0  0  0  0  0
  -12.6837   -8.3270   30.6059 C   0  0  0  0  0  0  0  0  0  0  0  0
  -12.6175   -8.8987   24.7718 C   0  0  0  0  0  0  0  0  0  0  0  0
  -12.8986   -8.9003   22.5915 N   0  0  0  0  0  0  0  0  0  0  0  0
  -12.9507   -8.1609   23.6751 N   0  0  0  0  0  0  0  0  0  0  0  0
  -12.3467  -11.2084   21.9735 N   0  0  0  0  0  0  0  0  0  0  0  0
  1 17  2  0
 18  1  1  0
  1 21  1  0
  2 18  2  0
 19  2  1  0
  3 19  1  0
 20  3  2  0
  4  5  1  0
 21  4  2  0
  5 22  2  0
  5 24  1  0
  7  6  3  0
  8  7  1  0
  9  8  2  0
  8 13  1  0
  9 10  1  0
 14  9  1  0
 10 11  2  0
 11 12  1  0
 13 12  2  0
 15 14  1  0
 15 16  1  0
 15 20  1  0
 16 17  1  0
 16 19  2  0
 21 23  1  0
 22 23  1  0
M  END
$$$$
