
     RDKit          3D

 24 27  0  0  0  0  0  0  0  0999 V2000
  -20.3459  -18.4170   11.5441 C   0  0  0  0  0  0  0  0  0  0  0  0
  -21.8389  -19.5255   10.1184 C   0  0  0  0  0  0  0  0  0  0  0  0
  -23.9992  -20.0648   11.2883 C   0  0  0  0  0  0  0  0  0  0  0  0
  -18.3960  -17.2762   12.8651 C   0  0  0  0  0  0  0  0  0  0  0  0
  -17.1361  -16.7582   12.5787 C   0  0  0  0  0  0  0  0  0  0  0  0
  -26.0003  -17.0149   17.0007 N   0  0  0  0  0  0  0  0  0  0  0  0
  -25.8193  -18.1458   16.6126 C   0  0  0  0  0  0  0  0  0  0  0  0
  -25.5943  -19.6490   16.0832 C   0  0  0  0  0  0  0  0  0  0  0  0
  -24.4861  -19.6262   15.4350 C   0  0  0  0  0  0  0  0  0  0  0  0
  -23.7249  -20.9180   15.7926 C   0  0  0  0  0  0  0  0  0  0  0  0
  -24.2913  -21.7360   16.6016 C   0  0  0  0  0  0  0  0  0  0  0  0
  -25.5425  -21.6468   17.2317 C   0  0  0  0  0  0  0  0  0  0  0  0
  -26.3007  -20.3858   16.9053 C   0  0  0  0  0  0  0  0  0  0  0  0
  -23.7343  -18.6782   14.6615 C   0  0  0  0  0  0  0  0  0  0  0  0
  -23.5234  -19.1531   13.2986 N   0  0  0  0  0  0  0  0  0  0  0  0
  -22.4763  -18.9625   12.4550 C   0  0  0  0  0  0  0  0  0  0  0  0
  -21.1989  -18.3100   12.8129 C   0  0  0  0  0  0  0  0  0  0  0  0
  -20.5727  -18.8705   10.5512 C   0  0  0  0  0  0  0  0  0  0  0  0
  -22.7005  -19.5226   11.1247 C   0  0  0  0  0  0  0  0  0  0  0  0
  -24.4564  -19.8622   12.5353 C   0  0  0  0  0  0  0  0  0  0  0  0
  -18.9566  -17.7899   11.8476 C   0  0  0  0  0  0  0  0  0  0  0  0
  -16.9624  -17.0461   11.2061 N   0  0  0  0  0  0  0  0  0  0  0  0
  -18.0539  -17.6403   10.8255 N   0  0  0  0  0  0  0  0  0  0  0  0
  -16.1469  -16.1727   13.3926 N   0  0  0  0  0  0  0  0  0  0  0  0
  1 17  2  0
 18  1  1  0
  1 21  1  0
  2 18  2  0
 19  2  1  0
  3 19  1  0
 20  3  2  0
  4  5  1  0
 21  4  2  0
  5 22  2  0
  5 24  1  0
  7  6  3  0
  8  7  1  0
  9  8  2  0
  8 13  1  0
  9 10  1  0
 14  9  1  0
 10 11  2  0
 11 12  1  0
 13 12  2  0
 14 15  1  6
 15 16  1  0
 15 20  1  0
 16 17  1  0
 16 19  2  0
 21 23  1  0
 22 23  1  0
M  END
$$$$
