
     RDKit          3D

 24 27  0  0  0  0  0  0  0  0999 V2000
  -10.0627   -4.2649   27.3193 C   0  0  0  0  0  0  0  0  0  0  0  0
  -12.0740   -3.3368   28.0834 C   0  0  0  0  0  0  0  0  0  0  0  0
  -13.3019   -4.9240   29.5997 C   0  0  0  0  0  0  0  0  0  0  0  0
   -7.7954   -4.9878   26.2306 C   0  0  0  0  0  0  0  0  0  0  0  0
   -6.8319   -4.4152   25.4052 C   0  0  0  0  0  0  0  0  0  0  0  0
   -9.9614  -10.9885   31.4654 N   0  0  0  0  0  0  0  0  0  0  0  0
  -10.9671  -10.6189   30.9051 C   0  0  0  0  0  0  0  0  0  0  0  0
  -12.3148  -10.1449   30.1636 C   0  0  0  0  0  0  0  0  0  0  0  0
  -12.0434   -8.9998   29.6496 C   0  0  0  0  0  0  0  0  0  0  0  0
  -12.6893   -8.9661   28.2505 C   0  0  0  0  0  0  0  0  0  0  0  0
  -13.3470  -10.0011   27.8754 C   0  0  0  0  0  0  0  0  0  0  0  0
  -13.5906  -11.2015   28.5610 C   0  0  0  0  0  0  0  0  0  0  0  0
  -12.9590  -11.2616   29.9280 C   0  0  0  0  0  0  0  0  0  0  0  0
  -11.1859   -7.8863   29.9445 C   0  0  0  0  0  0  0  0  0  0  0  0
  -11.8129   -6.6215   29.5777 N   0  0  0  0  0  0  0  0  0  0  0  0
  -11.3446   -5.5976   28.8181 C   0  0  0  0  0  0  0  0  0  0  0  0
  -10.0824   -5.6128   28.0486 C   0  0  0  0  0  0  0  0  0  0  0  0
  -10.7968   -3.4259   27.3215 C   0  0  0  0  0  0  0  0  0  0  0  0
  -12.2493   -4.4514   28.7776 C   0  0  0  0  0  0  0  0  0  0  0  0
  -13.0521   -6.1682   30.0412 C   0  0  0  0  0  0  0  0  0  0  0  0
   -8.7799   -4.2140   26.4434 C   0  0  0  0  0  0  0  0  0  0  0  0
   -7.3705   -3.1457   25.0966 N   0  0  0  0  0  0  0  0  0  0  0  0
   -8.5020   -3.0744   25.7319 N   0  0  0  0  0  0  0  0  0  0  0  0
   -5.6356   -4.9182   24.8577 N   0  0  0  0  0  0  0  0  0  0  0  0
  1 17  2  0
 18  1  1  0
  1 21  1  0
  2 18  2  0
 19  2  1  0
  3 19  1  0
 20  3  2  0
  4  5  1  0
 21  4  2  0
  5 22  2  0
  5 24  1  0
  7  6  3  0
  8  7  1  0
  9  8  2  0
  8 13  1  0
  9 10  1  0
 14  9  1  0
 10 11  2  0
 11 12  1  0
 13 12  2  0
 14 15  1  6
 15 16  1  0
 15 20  1  0
 16 17  1  0
 16 19  2  0
 21 23  1  0
 22 23  1  0
M  END
$$$$
