
     RDKit          3D

 24 27  0  0  0  0  0  0  0  0999 V2000
  -12.8682  -10.0662   26.0006 C   0  0  0  0  0  0  0  0  0  0  0  0
  -13.1857  -10.5465   28.2720 C   0  0  0  0  0  0  0  0  0  0  0  0
  -12.5113   -8.6075   29.7251 C   0  0  0  0  0  0  0  0  0  0  0  0
  -12.9176   -9.8620   23.3921 C   0  0  0  0  0  0  0  0  0  0  0  0
  -13.0095  -10.7240   22.3031 C   0  0  0  0  0  0  0  0  0  0  0  0
  -11.3628   -2.7477   25.6664 N   0  0  0  0  0  0  0  0  0  0  0  0
  -11.6612   -3.1016   26.7835 C   0  0  0  0  0  0  0  0  0  0  0  0
  -12.0730   -3.5847   28.2625 C   0  0  0  0  0  0  0  0  0  0  0  0
  -11.6773   -4.8031   28.3522 C   0  0  0  0  0  0  0  0  0  0  0  0
  -11.0782   -4.9828   29.7610 C   0  0  0  0  0  0  0  0  0  0  0  0
  -11.0899   -3.9680   30.5448 C   0  0  0  0  0  0  0  0  0  0  0  0
  -11.5859   -2.6737   30.3230 C   0  0  0  0  0  0  0  0  0  0  0  0
  -12.1670   -2.4712   28.9472 C   0  0  0  0  0  0  0  0  0  0  0  0
  -11.4855   -5.9190   27.4689 C   0  0  0  0  0  0  0  0  0  0  0  0
  -11.8998   -7.1693   28.0952 N   0  0  0  0  0  0  0  0  0  0  0  0
  -12.3393   -8.3269   27.5372 C   0  0  0  0  0  0  0  0  0  0  0  0
  -12.3607   -8.6228   26.0888 C   0  0  0  0  0  0  0  0  0  0  0  0
  -13.1660  -10.7827   26.8011 C   0  0  0  0  0  0  0  0  0  0  0  0
  -12.7585   -9.3183   28.5247 C   0  0  0  0  0  0  0  0  0  0  0  0
  -12.0085   -7.3875   29.4723 C   0  0  0  0  0  0  0  0  0  0  0  0
  -12.8797  -10.4783   24.5021 C   0  0  0  0  0  0  0  0  0  0  0  0
  -12.9990  -12.0079   22.8935 N   0  0  0  0  0  0  0  0  0  0  0  0
  -12.9302  -11.8099   24.1762 N   0  0  0  0  0  0  0  0  0  0  0  0
  -13.0080  -10.4956   20.9132 N   0  0  0  0  0  0  0  0  0  0  0  0
  1 17  2  0
 18  1  1  0
  1 21  1  0
  2 18  2  0
 19  2  1  0
  3 19  1  0
 20  3  2  0
  4  5  1  0
 21  4  2  0
  5 22  2  0
  5 24  1  0
  7  6  3  0
  8  7  1  0
  9  8  2  0
  8 13  1  0
  9 10  1  0
 14  9  1  0
 10 11  2  0
 11 12  1  0
 13 12  2  0
 14 15  1  6
 15 16  1  0
 15 20  1  0
 16 17  1  0
 16 19  2  0
 21 23  1  0
 22 23  1  0
M  END
$$$$
