
     RDKit          3D

 24 27  0  0  0  0  0  0  0  0999 V2000
  -21.1734  -18.7400   13.0411 C   0  0  0  0  0  0  0  0  0  0  0  0
  -22.8089  -19.7852   14.3916 C   0  0  0  0  0  0  0  0  0  0  0  0
  -24.8708  -20.3617   13.1235 C   0  0  0  0  0  0  0  0  0  0  0  0
  -19.4022  -17.0906   12.1595 C   0  0  0  0  0  0  0  0  0  0  0  0
  -18.1002  -16.7201   12.5583 C   0  0  0  0  0  0  0  0  0  0  0  0
  -24.5842  -20.0232    6.0354 N   0  0  0  0  0  0  0  0  0  0  0  0
  -25.0954  -19.3197    6.8667 C   0  0  0  0  0  0  0  0  0  0  0  0
  -25.6856  -18.4909    7.8710 C   0  0  0  0  0  0  0  0  0  0  0  0
  -25.4373  -18.5810    9.1648 C   0  0  0  0  0  0  0  0  0  0  0  0
  -26.3056  -17.9118   10.0517 C   0  0  0  0  0  0  0  0  0  0  0  0
  -27.3705  -17.1833    9.5617 C   0  0  0  0  0  0  0  0  0  0  0  0
  -27.6096  -17.1003    8.1904 C   0  0  0  0  0  0  0  0  0  0  0  0
  -26.7867  -17.7438    7.3095 C   0  0  0  0  0  0  0  0  0  0  0  0
  -24.2852  -19.2656    9.7061 C   0  0  0  0  0  0  0  0  0  0  0  0
  -24.2218  -19.5533   11.1079 N   0  0  0  0  0  0  0  0  0  0  0  0
  -23.2755  -19.3564   12.0231 C   0  0  0  0  0  0  0  0  0  0  0  0
  -22.0079  -18.8028   11.9543 C   0  0  0  0  0  0  0  0  0  0  0  0
  -21.5533  -19.2318   14.2876 C   0  0  0  0  0  0  0  0  0  0  0  0
  -23.6044  -19.8225   13.2758 C   0  0  0  0  0  0  0  0  0  0  0  0
  -25.2158  -20.1886   11.8007 C   0  0  0  0  0  0  0  0  0  0  0  0
  -19.8708  -18.0830   12.9690 C   0  0  0  0  0  0  0  0  0  0  0  0
  -17.8449  -17.5255   13.6154 N   0  0  0  0  0  0  0  0  0  0  0  0
  -18.8616  -18.3212   13.8538 N   0  0  0  0  0  0  0  0  0  0  0  0
  -17.2315  -15.7637   12.0236 N   0  0  0  0  0  0  0  0  0  0  0  0
  1 17  2  0
 18  1  1  0
  1 21  1  0
  2 18  2  0
 19  2  1  0
  3 19  1  0
 20  3  2  0
  4  5  1  0
 21  4  2  0
  5 22  2  0
  5 24  1  0
  7  6  3  0
  8  7  1  0
  9  8  2  0
  8 13  1  0
  9 10  1  0
 14  9  1  0
 10 11  2  0
 11 12  1  0
 13 12  2  0
 15 14  1  0
 15 16  1  0
 15 20  1  0
 16 17  1  0
 16 19  2  0
 21 23  1  0
 22 23  1  0
M  END
$$$$
