
     RDKit          3D

 24 27  0  0  0  0  0  0  0  0999 V2000
  -13.1594  -10.7296   24.0365 C   0  0  0  0  0  0  0  0  0  0  0  0
  -13.6099  -12.4381   25.5756 C   0  0  0  0  0  0  0  0  0  0  0  0
  -13.5671  -11.5811   27.9399 C   0  0  0  0  0  0  0  0  0  0  0  0
  -12.9586   -9.1046   21.9951 C   0  0  0  0  0  0  0  0  0  0  0  0
  -12.7294   -9.2100   20.6262 C   0  0  0  0  0  0  0  0  0  0  0  0
  -12.4368   -4.4258   28.3466 N   0  0  0  0  0  0  0  0  0  0  0  0
  -12.8295   -5.3685   28.9941 C   0  0  0  0  0  0  0  0  0  0  0  0
  -13.3410   -6.6358   29.8442 C   0  0  0  0  0  0  0  0  0  0  0  0
  -13.0637   -7.6669   29.1307 C   0  0  0  0  0  0  0  0  0  0  0  0
  -12.5386   -8.7538   30.0893 C   0  0  0  0  0  0  0  0  0  0  0  0
  -12.4864   -8.4685   31.3385 C   0  0  0  0  0  0  0  0  0  0  0  0
  -12.8515   -7.2859   32.0006 C   0  0  0  0  0  0  0  0  0  0  0  0
  -13.3579   -6.2042   31.0815 C   0  0  0  0  0  0  0  0  0  0  0  0
  -12.9422   -7.9840   27.7354 C   0  0  0  0  0  0  0  0  0  0  0  0
  -13.1248   -9.4114   27.4975 N   0  0  0  0  0  0  0  0  0  0  0  0
  -13.2206  -10.1015   26.3317 C   0  0  0  0  0  0  0  0  0  0  0  0
  -13.0111   -9.5334   24.9830 C   0  0  0  0  0  0  0  0  0  0  0  0
  -13.3719  -11.8033   24.2490 C   0  0  0  0  0  0  0  0  0  0  0  0
  -13.5080  -11.5205   26.5256 C   0  0  0  0  0  0  0  0  0  0  0  0
  -13.3337  -10.3766   28.4877 C   0  0  0  0  0  0  0  0  0  0  0  0
  -12.9079  -10.2270   22.5876 C   0  0  0  0  0  0  0  0  0  0  0  0
  -12.4953  -10.5903   20.4337 N   0  0  0  0  0  0  0  0  0  0  0  0
  -12.6185  -11.1397   21.6051 N   0  0  0  0  0  0  0  0  0  0  0  0
  -12.6227   -8.2429   19.6078 N   0  0  0  0  0  0  0  0  0  0  0  0
  1 17  2  0
 18  1  1  0
  1 21  1  0
  2 18  2  0
 19  2  1  0
  3 19  1  0
 20  3  2  0
  4  5  1  0
 21  4  2  0
  5 22  2  0
  5 24  1  0
  7  6  3  0
  8  7  1  0
  9  8  2  0
  8 13  1  0
  9 10  1  0
 14  9  1  0
 10 11  2  0
 11 12  1  0
 13 12  2  0
 14 15  1  6
 15 16  1  0
 15 20  1  0
 16 17  1  0
 16 19  2  0
 21 23  1  0
 22 23  1  0
M  END
$$$$
