
     RDKit          3D

 24 27  0  0  0  0  0  0  0  0999 V2000
  -18.1369  -16.0342   18.3700 C   0  0  0  0  0  0  0  0  0  0  0  0
  -20.0637  -16.9947   19.3477 C   0  0  0  0  0  0  0  0  0  0  0  0
  -21.3734  -18.3644   17.7350 C   0  0  0  0  0  0  0  0  0  0  0  0
  -16.1289  -14.6097   17.6127 C   0  0  0  0  0  0  0  0  0  0  0  0
  -15.2440  -13.7158   18.2525 C   0  0  0  0  0  0  0  0  0  0  0  0
  -17.4380  -17.1045   11.6539 N   0  0  0  0  0  0  0  0  0  0  0  0
  -18.5913  -17.1570   11.9919 C   0  0  0  0  0  0  0  0  0  0  0  0
  -19.9642  -17.1951   12.3886 C   0  0  0  0  0  0  0  0  0  0  0  0
  -20.4203  -17.7996   13.4704 C   0  0  0  0  0  0  0  0  0  0  0  0
  -21.8109  -18.0096   13.5726 C   0  0  0  0  0  0  0  0  0  0  0  0
  -22.6526  -17.5806   12.5665 C   0  0  0  0  0  0  0  0  0  0  0  0
  -22.1470  -16.9410   11.4352 C   0  0  0  0  0  0  0  0  0  0  0  0
  -20.8028  -16.7299   11.3086 C   0  0  0  0  0  0  0  0  0  0  0  0
  -19.5768  -18.1866   14.5785 C   0  0  0  0  0  0  0  0  0  0  0  0
  -20.0536  -18.0395   15.9212 N   0  0  0  0  0  0  0  0  0  0  0  0
  -19.5797  -17.3787   16.9751 C   0  0  0  0  0  0  0  0  0  0  0  0
  -18.4536  -16.5937   17.1582 C   0  0  0  0  0  0  0  0  0  0  0  0
  -18.9344  -16.2226   19.4963 C   0  0  0  0  0  0  0  0  0  0  0  0
  -20.3358  -17.5298   18.1153 C   0  0  0  0  0  0  0  0  0  0  0  0
  -21.1732  -18.6599   16.4041 C   0  0  0  0  0  0  0  0  0  0  0  0
  -16.9880  -15.1458   18.5260 C   0  0  0  0  0  0  0  0  0  0  0  0
  -15.6257  -13.7573   19.5502 N   0  0  0  0  0  0  0  0  0  0  0  0
  -16.6288  -14.5877   19.7168 N   0  0  0  0  0  0  0  0  0  0  0  0
  -14.1997  -12.9494   17.7259 N   0  0  0  0  0  0  0  0  0  0  0  0
  1 17  2  0
 18  1  1  0
  1 21  1  0
  2 18  2  0
 19  2  1  0
  3 19  1  0
 20  3  2  0
  4  5  1  0
 21  4  2  0
  5 22  2  0
  5 24  1  0
  7  6  3  0
  8  7  1  0
  9  8  2  0
  8 13  1  0
  9 10  1  0
 14  9  1  0
 10 11  2  0
 11 12  1  0
 13 12  2  0
 15 14  1  0
 15 16  1  0
 15 20  1  0
 16 17  1  0
 16 19  2  0
 21 23  1  0
 22 23  1  0
M  END
$$$$
