
     RDKit          3D

 24 27  0  0  0  0  0  0  0  0999 V2000
  -21.8070  -18.8262   12.5238 C   0  0  0  0  0  0  0  0  0  0  0  0
  -23.7314  -19.7072   13.5782 C   0  0  0  0  0  0  0  0  0  0  0  0
  -25.0825  -21.1419   12.0590 C   0  0  0  0  0  0  0  0  0  0  0  0
  -19.7840  -17.6902   13.6428 C   0  0  0  0  0  0  0  0  0  0  0  0
  -18.7464  -16.8427   13.1994 C   0  0  0  0  0  0  0  0  0  0  0  0
  -22.5455  -21.2702    5.1699 N   0  0  0  0  0  0  0  0  0  0  0  0
  -22.3955  -21.9132    6.1755 C   0  0  0  0  0  0  0  0  0  0  0  0
  -22.2009  -22.6918    7.3586 C   0  0  0  0  0  0  0  0  0  0  0  0
  -22.4733  -22.2826    8.5841 C   0  0  0  0  0  0  0  0  0  0  0  0
  -21.9556  -23.0319    9.6607 C   0  0  0  0  0  0  0  0  0  0  0  0
  -21.1978  -24.1599    9.4192 C   0  0  0  0  0  0  0  0  0  0  0  0
  -20.9270  -24.5739    8.1154 C   0  0  0  0  0  0  0  0  0  0  0  0
  -21.4120  -23.8628    7.0542 C   0  0  0  0  0  0  0  0  0  0  0  0
  -23.3310  -21.1555    8.8723 C   0  0  0  0  0  0  0  0  0  0  0  0
  -23.7857  -20.9313   10.2120 N   0  0  0  0  0  0  0  0  0  0  0  0
  -23.2877  -20.2224   11.2226 C   0  0  0  0  0  0  0  0  0  0  0  0
  -22.1489  -19.4443   11.3480 C   0  0  0  0  0  0  0  0  0  0  0  0
  -22.5900  -18.9440   13.6697 C   0  0  0  0  0  0  0  0  0  0  0  0
  -24.0286  -20.3028   12.3798 C   0  0  0  0  0  0  0  0  0  0  0  0
  -24.9060  -21.5099   10.7428 C   0  0  0  0  0  0  0  0  0  0  0  0
  -20.6445  -17.9467   12.6164 C   0  0  0  0  0  0  0  0  0  0  0  0
  -19.0396  -16.6283   11.8958 N   0  0  0  0  0  0  0  0  0  0  0  0
  -20.1398  -17.2577   11.5538 N   0  0  0  0  0  0  0  0  0  0  0  0
  -17.6555  -16.3130   13.8955 N   0  0  0  0  0  0  0  0  0  0  0  0
  1 17  2  0
 18  1  1  0
  1 21  1  0
  2 18  2  0
 19  2  1  0
  3 19  1  0
 20  3  2  0
  4  5  1  0
 21  4  2  0
  5 22  2  0
  5 24  1  0
  7  6  3  0
  8  7  1  0
  9  8  2  0
  8 13  1  0
  9 10  1  0
 14  9  1  0
 10 11  2  0
 11 12  1  0
 13 12  2  0
 15 14  1  0
 15 16  1  0
 15 20  1  0
 16 17  1  0
 16 19  2  0
 21 23  1  0
 22 23  1  0
M  END
$$$$
