
     RDKit          3D

 24 27  0  0  0  0  0  0  0  0999 V2000
  -20.1876  -17.4709   13.0963 C   0  0  0  0  0  0  0  0  0  0  0  0
  -22.2644  -16.5552   13.6785 C   0  0  0  0  0  0  0  0  0  0  0  0
  -24.1501  -18.1230   13.1197 C   0  0  0  0  0  0  0  0  0  0  0  0
  -17.7018  -18.1894   12.7054 C   0  0  0  0  0  0  0  0  0  0  0  0
  -16.4446  -17.5969   12.7826 C   0  0  0  0  0  0  0  0  0  0  0  0
  -21.3196  -23.5530    9.3332 N   0  0  0  0  0  0  0  0  0  0  0  0
  -22.4097  -23.1726    9.6925 C   0  0  0  0  0  0  0  0  0  0  0  0
  -23.8632  -22.6568   10.1529 C   0  0  0  0  0  0  0  0  0  0  0  0
  -23.6485  -21.6283   10.8912 C   0  0  0  0  0  0  0  0  0  0  0  0
  -24.7148  -20.5771   10.5256 C   0  0  0  0  0  0  0  0  0  0  0  0
  -25.5743  -20.8911    9.6272 C   0  0  0  0  0  0  0  0  0  0  0  0
  -25.7123  -22.0847    8.9015 C   0  0  0  0  0  0  0  0  0  0  0  0
  -24.6731  -23.1241    9.2346 C   0  0  0  0  0  0  0  0  0  0  0  0
  -22.6196  -21.1603   11.7769 C   0  0  0  0  0  0  0  0  0  0  0  0
  -22.9265  -19.8306   12.2917 N   0  0  0  0  0  0  0  0  0  0  0  0
  -22.0979  -18.8336   12.6966 C   0  0  0  0  0  0  0  0  0  0  0  0
  -20.6255  -18.8396   12.5636 C   0  0  0  0  0  0  0  0  0  0  0  0
  -20.7868  -16.6221   13.5007 C   0  0  0  0  0  0  0  0  0  0  0  0
  -22.8094  -17.6840   13.2498 C   0  0  0  0  0  0  0  0  0  0  0  0
  -24.2095  -19.3428   12.5595 C   0  0  0  0  0  0  0  0  0  0  0  0
  -18.6434  -17.3730   12.9509 C   0  0  0  0  0  0  0  0  0  0  0  0
  -16.7311  -16.2488   13.0953 N   0  0  0  0  0  0  0  0  0  0  0  0
  -18.0250  -16.1720   13.1904 N   0  0  0  0  0  0  0  0  0  0  0  0
  -15.1499  -18.0884   12.5258 N   0  0  0  0  0  0  0  0  0  0  0  0
  1 17  2  0
 18  1  1  0
  1 21  1  0
  2 18  2  0
 19  2  1  0
  3 19  1  0
 20  3  2  0
  4  5  1  0
 21  4  2  0
  5 22  2  0
  5 24  1  0
  7  6  3  0
  8  7  1  0
  9  8  2  0
  8 13  1  0
  9 10  1  0
 14  9  1  0
 10 11  2  0
 11 12  1  0
 13 12  2  0
 14 15  1  6
 15 16  1  0
 15 20  1  0
 16 17  1  0
 16 19  2  0
 21 23  1  0
 22 23  1  0
M  END
$$$$
