
     RDKit          3D

 24 27  0  0  0  0  0  0  0  0999 V2000
  -13.2501  -10.9478   24.4572 C   0  0  0  0  0  0  0  0  0  0  0  0
  -13.7736  -12.4739   26.1565 C   0  0  0  0  0  0  0  0  0  0  0  0
  -13.5370  -11.4321   28.4335 C   0  0  0  0  0  0  0  0  0  0  0  0
  -13.1180   -9.5399   22.2552 C   0  0  0  0  0  0  0  0  0  0  0  0
  -12.8982   -9.7810   20.9021 C   0  0  0  0  0  0  0  0  0  0  0  0
  -11.3464   -4.5278   28.3379 N   0  0  0  0  0  0  0  0  0  0  0  0
  -12.0587   -5.2890   28.9506 C   0  0  0  0  0  0  0  0  0  0  0  0
  -13.0203   -6.2870   29.7690 C   0  0  0  0  0  0  0  0  0  0  0  0
  -12.8910   -7.4334   29.2051 C   0  0  0  0  0  0  0  0  0  0  0  0
  -12.8412   -8.4882   30.3280 C   0  0  0  0  0  0  0  0  0  0  0  0
  -12.9436   -8.0732   31.5370 C   0  0  0  0  0  0  0  0  0  0  0  0
  -13.1083   -6.7662   32.0218 C   0  0  0  0  0  0  0  0  0  0  0  0
  -13.1488   -5.7160   30.9417 C   0  0  0  0  0  0  0  0  0  0  0  0
  -12.6054   -7.9379   27.8913 C   0  0  0  0  0  0  0  0  0  0  0  0
  -12.9260   -9.3569   27.7860 N   0  0  0  0  0  0  0  0  0  0  0  0
  -13.1408  -10.1291   26.6897 C   0  0  0  0  0  0  0  0  0  0  0  0
  -12.9490   -9.6963   25.2891 C   0  0  0  0  0  0  0  0  0  0  0  0
  -13.5464  -11.9758   24.7709 C   0  0  0  0  0  0  0  0  0  0  0  0
  -13.5433  -11.4944   27.0180 C   0  0  0  0  0  0  0  0  0  0  0  0
  -13.1704  -10.2134   28.8642 C   0  0  0  0  0  0  0  0  0  0  0  0
  -13.0274  -10.5921   22.9608 C   0  0  0  0  0  0  0  0  0  0  0  0
  -12.6235  -11.1663   20.8515 N   0  0  0  0  0  0  0  0  0  0  0  0
  -12.7191  -11.5936   22.0753 N   0  0  0  0  0  0  0  0  0  0  0  0
  -12.8305   -8.9229   19.7872 N   0  0  0  0  0  0  0  0  0  0  0  0
  1 17  2  0
 18  1  1  0
  1 21  1  0
  2 18  2  0
 19  2  1  0
  3 19  1  0
 20  3  2  0
  4  5  1  0
 21  4  2  0
  5 22  2  0
  5 24  1  0
  7  6  3  0
  8  7  1  0
  9  8  2  0
  8 13  1  0
  9 10  1  0
 14  9  1  0
 10 11  2  0
 11 12  1  0
 13 12  2  0
 14 15  1  6
 15 16  1  0
 15 20  1  0
 16 17  1  0
 16 19  2  0
 21 23  1  0
 22 23  1  0
M  END
$$$$
