
     RDKit          3D

 24 27  0  0  0  0  0  0  0  0999 V2000
  -21.4606  -18.2054   12.4801 C   0  0  0  0  0  0  0  0  0  0  0  0
  -23.7748  -17.7400   12.3434 C   0  0  0  0  0  0  0  0  0  0  0  0
  -25.0738  -19.6249   11.3677 C   0  0  0  0  0  0  0  0  0  0  0  0
  -18.9178  -18.3543   12.8635 C   0  0  0  0  0  0  0  0  0  0  0  0
  -17.8915  -17.4182   13.1121 C   0  0  0  0  0  0  0  0  0  0  0  0
  -21.2201  -25.6948   10.2690 N   0  0  0  0  0  0  0  0  0  0  0  0
  -21.4220  -24.7150    9.6008 C   0  0  0  0  0  0  0  0  0  0  0  0
  -21.6603  -23.5365    8.8274 C   0  0  0  0  0  0  0  0  0  0  0  0
  -22.3531  -22.4909    9.2401 C   0  0  0  0  0  0  0  0  0  0  0  0
  -22.7555  -21.5435    8.2763 C   0  0  0  0  0  0  0  0  0  0  0  0
  -22.4175  -21.7178    6.9496 C   0  0  0  0  0  0  0  0  0  0  0  0
  -21.6818  -22.8290    6.5390 C   0  0  0  0  0  0  0  0  0  0  0  0
  -21.2840  -23.7649    7.4518 C   0  0  0  0  0  0  0  0  0  0  0  0
  -22.6521  -22.2356   10.6309 C   0  0  0  0  0  0  0  0  0  0  0  0
  -23.3354  -21.0329   11.0030 N   0  0  0  0  0  0  0  0  0  0  0  0
  -22.9122  -19.8857   11.5291 C   0  0  0  0  0  0  0  0  0  0  0  0
  -21.6584  -19.4369   11.9091 C   0  0  0  0  0  0  0  0  0  0  0  0
  -22.5156  -17.3264   12.7131 C   0  0  0  0  0  0  0  0  0  0  0  0
  -23.9184  -18.9794   11.7754 C   0  0  0  0  0  0  0  0  0  0  0  0
  -24.6901  -20.8667   10.9098 C   0  0  0  0  0  0  0  0  0  0  0  0
  -20.1222  -17.7175   12.8030 C   0  0  0  0  0  0  0  0  0  0  0  0
  -18.5448  -16.2355   13.1879 N   0  0  0  0  0  0  0  0  0  0  0  0
  -19.8358  -16.4021   13.0174 N   0  0  0  0  0  0  0  0  0  0  0  0
  -16.5143  -17.6087   13.2617 N   0  0  0  0  0  0  0  0  0  0  0  0
  1 17  2  0
 18  1  1  0
  1 21  1  0
  2 18  2  0
 19  2  1  0
  3 19  1  0
 20  3  2  0
  4  5  1  0
 21  4  2  0
  5 22  2  0
  5 24  1  0
  7  6  3  0
  8  7  1  0
  9  8  2  0
  8 13  1  0
  9 10  1  0
 14  9  1  0
 10 11  2  0
 11 12  1  0
 13 12  2  0
 15 14  1  0
 15 16  1  0
 15 20  1  0
 16 17  1  0
 16 19  2  0
 21 23  1  0
 22 23  1  0
M  END
$$$$
