
     RDKit          3D

 24 27  0  0  0  0  0  0  0  0999 V2000
  -20.0649  -18.0264   13.9584 C   0  0  0  0  0  0  0  0  0  0  0  0
  -21.6065  -19.5110   14.9123 C   0  0  0  0  0  0  0  0  0  0  0  0
  -23.9746  -18.7893   14.4682 C   0  0  0  0  0  0  0  0  0  0  0  0
  -18.0724  -16.4883   13.2425 C   0  0  0  0  0  0  0  0  0  0  0  0
  -16.6881  -16.5935   13.1407 C   0  0  0  0  0  0  0  0  0  0  0  0
  -24.9418  -13.8673    9.5181 N   0  0  0  0  0  0  0  0  0  0  0  0
  -25.4353  -14.2737   10.5444 C   0  0  0  0  0  0  0  0  0  0  0  0
  -26.0744  -14.8236   11.9155 C   0  0  0  0  0  0  0  0  0  0  0  0
  -25.0824  -15.2323   12.6211 C   0  0  0  0  0  0  0  0  0  0  0  0
  -25.3496  -14.7955   14.0750 C   0  0  0  0  0  0  0  0  0  0  0  0
  -26.4382  -14.1610   14.3135 C   0  0  0  0  0  0  0  0  0  0  0  0
  -27.4687  -13.7932   13.4343 C   0  0  0  0  0  0  0  0  0  0  0  0
  -27.2240  -14.2005   12.0040 C   0  0  0  0  0  0  0  0  0  0  0  0
  -23.7788  -15.7879   12.3887 C   0  0  0  0  0  0  0  0  0  0  0  0
  -23.5340  -16.9439   13.2436 N   0  0  0  0  0  0  0  0  0  0  0  0
  -22.3674  -17.5432   13.5964 C   0  0  0  0  0  0  0  0  0  0  0  0
  -21.0159  -17.0358   13.2777 C   0  0  0  0  0  0  0  0  0  0  0  0
  -20.2761  -18.9353   14.5685 C   0  0  0  0  0  0  0  0  0  0  0  0
  -22.5602  -18.7520   14.3935 C   0  0  0  0  0  0  0  0  0  0  0  0
  -24.5226  -17.7468   13.8215 C   0  0  0  0  0  0  0  0  0  0  0  0
  -18.6099  -17.5399   13.7101 C   0  0  0  0  0  0  0  0  0  0  0  0
  -16.4148  -17.8845   13.6464 N   0  0  0  0  0  0  0  0  0  0  0  0
  -17.5679  -18.3974   13.9569 N   0  0  0  0  0  0  0  0  0  0  0  0
  -15.6956  -15.6729   12.7519 N   0  0  0  0  0  0  0  0  0  0  0  0
  1 17  2  0
 18  1  1  0
  1 21  1  0
  2 18  2  0
 19  2  1  0
  3 19  1  0
 20  3  2  0
  4  5  1  0
 21  4  2  0
  5 22  2  0
  5 24  1  0
  7  6  3  0
  8  7  1  0
  9  8  2  0
  8 13  1  0
  9 10  1  0
 14  9  1  0
 10 11  2  0
 11 12  1  0
 13 12  2  0
 14 15  1  6
 15 16  1  0
 15 20  1  0
 16 17  1  0
 16 19  2  0
 21 23  1  0
 22 23  1  0
M  END
$$$$
