
     RDKit          3D

 24 27  0  0  0  0  0  0  0  0999 V2000
  -13.4448   -9.3532   25.9291 C   0  0  0  0  0  0  0  0  0  0  0  0
  -15.0879   -8.7428   27.5162 C   0  0  0  0  0  0  0  0  0  0  0  0
  -14.1430   -8.4181   29.7951 C   0  0  0  0  0  0  0  0  0  0  0  0
  -12.0498  -10.3613   24.0128 C   0  0  0  0  0  0  0  0  0  0  0  0
  -12.2904  -10.6563   22.6539 C   0  0  0  0  0  0  0  0  0  0  0  0
   -6.8250   -8.8743   29.7813 N   0  0  0  0  0  0  0  0  0  0  0  0
   -7.7144   -9.6759   29.8987 C   0  0  0  0  0  0  0  0  0  0  0  0
   -8.7810  -10.6146   30.0566 C   0  0  0  0  0  0  0  0  0  0  0  0
  -10.0650  -10.3072   30.0391 C   0  0  0  0  0  0  0  0  0  0  0  0
  -10.9816  -11.2735   30.5024 C   0  0  0  0  0  0  0  0  0  0  0  0
  -10.5305  -12.4996   30.9474 C   0  0  0  0  0  0  0  0  0  0  0  0
   -9.1692  -12.8019   30.9526 C   0  0  0  0  0  0  0  0  0  0  0  0
   -8.2594  -11.8814   30.5140 C   0  0  0  0  0  0  0  0  0  0  0  0
  -10.5768   -9.0662   29.5032 C   0  0  0  0  0  0  0  0  0  0  0  0
  -11.9856   -8.9060   29.2999 N   0  0  0  0  0  0  0  0  0  0  0  0
  -12.7559   -9.0202   28.2203 C   0  0  0  0  0  0  0  0  0  0  0  0
  -12.4768   -9.3346   26.9008 C   0  0  0  0  0  0  0  0  0  0  0  0
  -14.7756   -9.0557   26.2131 C   0  0  0  0  0  0  0  0  0  0  0  0
  -14.0839   -8.7396   28.4494 C   0  0  0  0  0  0  0  0  0  0  0  0
  -12.8580   -8.5228   30.2816 C   0  0  0  0  0  0  0  0  0  0  0  0
  -13.1464   -9.7625   24.5591 C   0  0  0  0  0  0  0  0  0  0  0  0
  -13.5516  -10.2121   22.4457 N   0  0  0  0  0  0  0  0  0  0  0  0
  -14.0500   -9.6875   23.5411 N   0  0  0  0  0  0  0  0  0  0  0  0
  -11.4609  -11.2552   21.7008 N   0  0  0  0  0  0  0  0  0  0  0  0
  1 17  2  0
 18  1  1  0
  1 21  1  0
  2 18  2  0
 19  2  1  0
  3 19  1  0
 20  3  2  0
  4  5  1  0
 21  4  2  0
  5 22  2  0
  5 24  1  0
  7  6  3  0
  8  7  1  0
  9  8  2  0
  8 13  1  0
  9 10  1  0
 14  9  1  0
 10 11  2  0
 11 12  1  0
 13 12  2  0
 15 14  1  0
 15 16  1  0
 15 20  1  0
 16 17  1  0
 16 19  2  0
 21 23  1  0
 22 23  1  0
M  END
$$$$
