
     RDKit          3D

 24 27  0  0  0  0  0  0  0  0999 V2000
  -19.7472  -16.8300   12.3534 C   0  0  0  0  0  0  0  0  0  0  0  0
  -22.0545  -17.3094   12.1598 C   0  0  0  0  0  0  0  0  0  0  0  0
  -23.0164  -18.2449   14.2554 C   0  0  0  0  0  0  0  0  0  0  0  0
  -17.2070  -16.6204   11.9810 C   0  0  0  0  0  0  0  0  0  0  0  0
  -16.3906  -16.0656   10.9726 C   0  0  0  0  0  0  0  0  0  0  0  0
  -17.2945  -18.6421   18.9536 N   0  0  0  0  0  0  0  0  0  0  0  0
  -18.3961  -18.1609   18.9060 C   0  0  0  0  0  0  0  0  0  0  0  0
  -19.7109  -17.6007   18.8709 C   0  0  0  0  0  0  0  0  0  0  0  0
  -20.4869  -17.5642   17.8031 C   0  0  0  0  0  0  0  0  0  0  0  0
  -21.6190  -16.7242   17.8382 C   0  0  0  0  0  0  0  0  0  0  0  0
  -21.8944  -15.9788   18.9666 C   0  0  0  0  0  0  0  0  0  0  0  0
  -21.0614  -16.0374   20.0834 C   0  0  0  0  0  0  0  0  0  0  0  0
  -19.9548  -16.8391   20.0736 C   0  0  0  0  0  0  0  0  0  0  0  0
  -20.2738  -18.3931   16.6384 C   0  0  0  0  0  0  0  0  0  0  0  0
  -21.1157  -18.2371   15.4901 N   0  0  0  0  0  0  0  0  0  0  0  0
  -20.8829  -17.7817   14.2611 C   0  0  0  0  0  0  0  0  0  0  0  0
  -19.7434  -17.2922   13.6449 C   0  0  0  0  0  0  0  0  0  0  0  0
  -20.9048  -16.8257   11.5788 C   0  0  0  0  0  0  0  0  0  0  0  0
  -21.9969  -17.7608   13.4529 C   0  0  0  0  0  0  0  0  0  0  0  0
  -22.4542  -18.5199   15.4830 C   0  0  0  0  0  0  0  0  0  0  0  0
  -18.5202  -16.3899   11.6943 C   0  0  0  0  0  0  0  0  0  0  0  0
  -17.2746  -15.5180   10.1065 N   0  0  0  0  0  0  0  0  0  0  0  0
  -18.5075  -15.6954   10.5214 N   0  0  0  0  0  0  0  0  0  0  0  0
  -14.9980  -16.0480   10.8482 N   0  0  0  0  0  0  0  0  0  0  0  0
  1 17  2  0
 18  1  1  0
  1 21  1  0
  2 18  2  0
 19  2  1  0
  3 19  1  0
 20  3  2  0
  4  5  1  0
 21  4  2  0
  5 22  2  0
  5 24  1  0
  7  6  3  0
  8  7  1  0
  9  8  2  0
  8 13  1  0
  9 10  1  0
 14  9  1  0
 10 11  2  0
 11 12  1  0
 13 12  2  0
 15 14  1  0
 15 16  1  0
 15 20  1  0
 16 17  1  0
 16 19  2  0
 21 23  1  0
 22 23  1  0
M  END
$$$$
