
     RDKit          3D

 24 27  0  0  0  0  0  0  0  0999 V2000
  -20.9900  -19.9765   11.4201 C   0  0  0  0  0  0  0  0  0  0  0  0
  -21.3848  -22.1710   10.6334 C   0  0  0  0  0  0  0  0  0  0  0  0
  -23.8093  -22.7075   10.4710 C   0  0  0  0  0  0  0  0  0  0  0  0
  -20.1678  -17.7320   12.3800 C   0  0  0  0  0  0  0  0  0  0  0  0
  -18.9075  -17.1960   12.7202 C   0  0  0  0  0  0  0  0  0  0  0  0
  -26.5470  -16.3411   12.9633 N   0  0  0  0  0  0  0  0  0  0  0  0
  -26.6413  -16.9957   11.9584 C   0  0  0  0  0  0  0  0  0  0  0  0
  -26.7738  -17.7608   10.7581 C   0  0  0  0  0  0  0  0  0  0  0  0
  -26.1615  -18.9068   10.5226 C   0  0  0  0  0  0  0  0  0  0  0  0
  -26.1496  -19.3888    9.1975 C   0  0  0  0  0  0  0  0  0  0  0  0
  -26.7723  -18.6743    8.1943 C   0  0  0  0  0  0  0  0  0  0  0  0
  -27.4158  -17.4680    8.4690 C   0  0  0  0  0  0  0  0  0  0  0  0
  -27.4375  -16.9757    9.7435 C   0  0  0  0  0  0  0  0  0  0  0  0
  -25.5721  -19.7200   11.5620 C   0  0  0  0  0  0  0  0  0  0  0  0
  -24.6085  -20.7233   11.2205 N   0  0  0  0  0  0  0  0  0  0  0  0
  -23.2774  -20.7258   11.2171 C   0  0  0  0  0  0  0  0  0  0  0  0
  -22.3391  -19.7603   11.5415 C   0  0  0  0  0  0  0  0  0  0  0  0
  -20.4792  -21.1881   10.9608 C   0  0  0  0  0  0  0  0  0  0  0  0
  -22.7222  -21.9048   10.7740 C   0  0  0  0  0  0  0  0  0  0  0  0
  -24.9363  -21.9641   10.7466 C   0  0  0  0  0  0  0  0  0  0  0  0
  -20.0134  -18.9747   11.8402 C   0  0  0  0  0  0  0  0  0  0  0  0
  -18.0363  -18.1676   12.3620 N   0  0  0  0  0  0  0  0  0  0  0  0
  -18.6683  -19.1960   11.8457 N   0  0  0  0  0  0  0  0  0  0  0  0
  -18.5761  -15.9612   13.2863 N   0  0  0  0  0  0  0  0  0  0  0  0
  1 17  2  0
 18  1  1  0
  1 21  1  0
  2 18  2  0
 19  2  1  0
  3 19  1  0
 20  3  2  0
  4  5  1  0
 21  4  2  0
  5 22  2  0
  5 24  1  0
  7  6  3  0
  8  7  1  0
  9  8  2  0
  8 13  1  0
  9 10  1  0
 14  9  1  0
 10 11  2  0
 11 12  1  0
 13 12  2  0
 15 14  1  0
 15 16  1  0
 15 20  1  0
 16 17  1  0
 16 19  2  0
 21 23  1  0
 22 23  1  0
M  END
$$$$
