
     RDKit          3D

 24 27  0  0  0  0  0  0  0  0999 V2000
  -20.8301  -17.4632   12.6582 C   0  0  0  0  0  0  0  0  0  0  0  0
  -22.9813  -16.5626   12.4307 C   0  0  0  0  0  0  0  0  0  0  0  0
  -24.6451  -18.3180   11.7404 C   0  0  0  0  0  0  0  0  0  0  0  0
  -18.3753  -18.0759   13.3269 C   0  0  0  0  0  0  0  0  0  0  0  0
  -17.1654  -17.4072   13.4899 C   0  0  0  0  0  0  0  0  0  0  0  0
  -21.8254  -25.0013   11.3339 N   0  0  0  0  0  0  0  0  0  0  0  0
  -22.5439  -24.2441   10.7235 C   0  0  0  0  0  0  0  0  0  0  0  0
  -23.5003  -23.2492    9.8952 C   0  0  0  0  0  0  0  0  0  0  0  0
  -23.2467  -22.0723   10.3419 C   0  0  0  0  0  0  0  0  0  0  0  0
  -23.2192  -21.1227    9.1280 C   0  0  0  0  0  0  0  0  0  0  0  0
  -23.4502  -21.6293    7.9729 C   0  0  0  0  0  0  0  0  0  0  0  0
  -23.7435  -22.9564    7.6220 C   0  0  0  0  0  0  0  0  0  0  0  0
  -23.7649  -23.9058    8.7923 C   0  0  0  0  0  0  0  0  0  0  0  0
  -22.8187  -21.4817   11.5789 C   0  0  0  0  0  0  0  0  0  0  0  0
  -23.2492  -20.0919   11.6807 N   0  0  0  0  0  0  0  0  0  0  0  0
  -22.5608  -18.9858   12.0645 C   0  0  0  0  0  0  0  0  0  0  0  0
  -21.1099  -18.9371   12.3445 C   0  0  0  0  0  0  0  0  0  0  0  0
  -21.5132  -16.5826   12.6837 C   0  0  0  0  0  0  0  0  0  0  0  0
  -23.3915  -17.7862   12.1315 C   0  0  0  0  0  0  0  0  0  0  0  0
  -24.5529  -19.6311   11.4715 C   0  0  0  0  0  0  0  0  0  0  0  0
  -19.3062  -17.3118   12.9232 C   0  0  0  0  0  0  0  0  0  0  0  0
  -17.4625  -16.0823   13.0983 N   0  0  0  0  0  0  0  0  0  0  0  0
  -18.7239  -16.0774   12.7850 N   0  0  0  0  0  0  0  0  0  0  0  0
  -15.8774  -17.8547   13.8429 N   0  0  0  0  0  0  0  0  0  0  0  0
  1 17  2  0
 18  1  1  0
  1 21  1  0
  2 18  2  0
 19  2  1  0
  3 19  1  0
 20  3  2  0
  4  5  1  0
 21  4  2  0
  5 22  2  0
  5 24  1  0
  7  6  3  0
  8  7  1  0
  9  8  2  0
  8 13  1  0
  9 10  1  0
 14  9  1  0
 10 11  2  0
 11 12  1  0
 13 12  2  0
 14 15  1  6
 15 16  1  0
 15 20  1  0
 16 17  1  0
 16 19  2  0
 21 23  1  0
 22 23  1  0
M  END
$$$$
