
     RDKit          3D

 24 27  0  0  0  0  0  0  0  0999 V2000
  -13.0288   -9.1225   26.3563 C   0  0  0  0  0  0  0  0  0  0  0  0
  -14.6306   -8.1405   27.7919 C   0  0  0  0  0  0  0  0  0  0  0  0
  -13.8082   -7.9124   30.1293 C   0  0  0  0  0  0  0  0  0  0  0  0
  -13.5203   -9.9631   23.9716 C   0  0  0  0  0  0  0  0  0  0  0  0
  -12.7299  -10.3134   22.8563 C   0  0  0  0  0  0  0  0  0  0  0  0
   -6.8779   -9.5770   31.4164 N   0  0  0  0  0  0  0  0  0  0  0  0
   -7.8525  -10.2446   31.1890 C   0  0  0  0  0  0  0  0  0  0  0  0
   -8.9977  -11.0586   30.9247 C   0  0  0  0  0  0  0  0  0  0  0  0
  -10.1945  -10.5975   30.6104 C   0  0  0  0  0  0  0  0  0  0  0  0
  -11.2836  -11.4909   30.6735 C   0  0  0  0  0  0  0  0  0  0  0  0
  -11.0821  -12.8045   31.0456 C   0  0  0  0  0  0  0  0  0  0  0  0
   -9.8076  -13.2686   31.3695 C   0  0  0  0  0  0  0  0  0  0  0  0
   -8.7357  -12.4223   31.3217 C   0  0  0  0  0  0  0  0  0  0  0  0
  -10.4275   -9.2517   30.1375 C   0  0  0  0  0  0  0  0  0  0  0  0
  -11.7587   -8.8295   29.8193 N   0  0  0  0  0  0  0  0  0  0  0  0
  -12.4560   -8.8361   28.6854 C   0  0  0  0  0  0  0  0  0  0  0  0
  -12.1491   -9.2524   27.4007 C   0  0  0  0  0  0  0  0  0  0  0  0
  -14.2921   -8.5611   26.5262 C   0  0  0  0  0  0  0  0  0  0  0  0
  -13.7159   -8.2940   28.8013 C   0  0  0  0  0  0  0  0  0  0  0  0
  -12.6076   -8.2445   30.7186 C   0  0  0  0  0  0  0  0  0  0  0  0
  -12.7181   -9.6377   25.0252 C   0  0  0  0  0  0  0  0  0  0  0  0
  -11.4604  -10.1754   23.3042 N   0  0  0  0  0  0  0  0  0  0  0  0
  -11.4461   -9.7920   24.5598 N   0  0  0  0  0  0  0  0  0  0  0  0
  -13.1104  -10.7207   21.5739 N   0  0  0  0  0  0  0  0  0  0  0  0
  1 17  2  0
 18  1  1  0
  1 21  1  0
  2 18  2  0
 19  2  1  0
  3 19  1  0
 20  3  2  0
  4  5  1  0
 21  4  2  0
  5 22  2  0
  5 24  1  0
  7  6  3  0
  8  7  1  0
  9  8  2  0
  8 13  1  0
  9 10  1  0
 14  9  1  0
 10 11  2  0
 11 12  1  0
 13 12  2  0
 15 14  1  0
 15 16  1  0
 15 20  1  0
 16 17  1  0
 16 19  2  0
 21 23  1  0
 22 23  1  0
M  END
$$$$
