
     RDKit          3D

 24 27  0  0  0  0  0  0  0  0999 V2000
  -21.6261  -18.2592   12.3944 C   0  0  0  0  0  0  0  0  0  0  0  0
  -23.9562  -18.0118   12.3796 C   0  0  0  0  0  0  0  0  0  0  0  0
  -25.0821  -19.9707   11.2746 C   0  0  0  0  0  0  0  0  0  0  0  0
  -19.0659  -18.2531   12.9365 C   0  0  0  0  0  0  0  0  0  0  0  0
  -18.0913  -17.3090   13.2468 C   0  0  0  0  0  0  0  0  0  0  0  0
  -19.8574  -24.6518    9.2611 N   0  0  0  0  0  0  0  0  0  0  0  0
  -20.7677  -24.0560    8.7334 C   0  0  0  0  0  0  0  0  0  0  0  0
  -21.9830  -23.2532    8.0485 C   0  0  0  0  0  0  0  0  0  0  0  0
  -22.3793  -22.4066    8.9290 C   0  0  0  0  0  0  0  0  0  0  0  0
  -22.6734  -21.0868    8.1891 C   0  0  0  0  0  0  0  0  0  0  0  0
  -22.4988  -21.0669    6.9189 C   0  0  0  0  0  0  0  0  0  0  0  0
  -22.0756  -22.0927    6.0592 C   0  0  0  0  0  0  0  0  0  0  0  0
  -21.7714  -23.3905    6.7624 C   0  0  0  0  0  0  0  0  0  0  0  0
  -22.4324  -22.3193   10.3614 C   0  0  0  0  0  0  0  0  0  0  0  0
  -23.2393  -21.1842   10.7947 N   0  0  0  0  0  0  0  0  0  0  0  0
  -22.8769  -20.0450   11.4392 C   0  0  0  0  0  0  0  0  0  0  0  0
  -21.4872  -19.6339   11.7311 C   0  0  0  0  0  0  0  0  0  0  0  0
  -22.5318  -17.6529   12.6287 C   0  0  0  0  0  0  0  0  0  0  0  0
  -24.0132  -19.1969   11.7903 C   0  0  0  0  0  0  0  0  0  0  0  0
  -24.6316  -21.0964   10.6959 C   0  0  0  0  0  0  0  0  0  0  0  0
  -20.1973  -17.7278   12.6970 C   0  0  0  0  0  0  0  0  0  0  0  0
  -18.7764  -16.0774   13.1429 N   0  0  0  0  0  0  0  0  0  0  0  0
  -20.0015  -16.3763   12.8282 N   0  0  0  0  0  0  0  0  0  0  0  0
  -16.7118  -17.4240   13.5067 N   0  0  0  0  0  0  0  0  0  0  0  0
  1 17  2  0
 18  1  1  0
  1 21  1  0
  2 18  2  0
 19  2  1  0
  3 19  1  0
 20  3  2  0
  4  5  1  0
 21  4  2  0
  5 22  2  0
  5 24  1  0
  7  6  3  0
  8  7  1  0
  9  8  2  0
  8 13  1  0
  9 10  1  0
 14  9  1  0
 10 11  2  0
 11 12  1  0
 13 12  2  0
 14 15  1  6
 15 16  1  0
 15 20  1  0
 16 17  1  0
 16 19  2  0
 21 23  1  0
 22 23  1  0
M  END
$$$$
