
     RDKit          3D

 24 27  0  0  0  0  0  0  0  0999 V2000
  -20.6824  -20.1067   11.1125 C   0  0  0  0  0  0  0  0  0  0  0  0
  -20.9855  -22.2349   10.1277 C   0  0  0  0  0  0  0  0  0  0  0  0
  -23.3685  -22.9511   10.1115 C   0  0  0  0  0  0  0  0  0  0  0  0
  -19.9240  -17.9691   12.3333 C   0  0  0  0  0  0  0  0  0  0  0  0
  -18.6806  -17.3448   12.5694 C   0  0  0  0  0  0  0  0  0  0  0  0
  -25.4833  -16.9407   13.4934 N   0  0  0  0  0  0  0  0  0  0  0  0
  -25.8207  -17.4639   12.4639 C   0  0  0  0  0  0  0  0  0  0  0  0
  -26.2396  -18.0685   11.2381 C   0  0  0  0  0  0  0  0  0  0  0  0
  -25.8458  -19.2532   10.8082 C   0  0  0  0  0  0  0  0  0  0  0  0
  -26.0995  -19.5846    9.4613 C   0  0  0  0  0  0  0  0  0  0  0  0
  -26.7489  -18.6879    8.6373 C   0  0  0  0  0  0  0  0  0  0  0  0
  -27.1585  -17.4439    9.1159 C   0  0  0  0  0  0  0  0  0  0  0  0
  -26.9201  -17.0955   10.4156 C   0  0  0  0  0  0  0  0  0  0  0  0
  -25.2385  -20.2466   11.6646 C   0  0  0  0  0  0  0  0  0  0  0  0
  -24.2392  -21.1266   11.1365 N   0  0  0  0  0  0  0  0  0  0  0  0
  -22.9174  -21.0185   11.0215 C   0  0  0  0  0  0  0  0  0  0  0  0
  -22.0269  -20.0165   11.3693 C   0  0  0  0  0  0  0  0  0  0  0  0
  -20.1283  -21.2188   10.4831 C   0  0  0  0  0  0  0  0  0  0  0  0
  -22.3201  -22.0962   10.4080 C   0  0  0  0  0  0  0  0  0  0  0  0
  -24.5170  -22.3356   10.5597 C   0  0  0  0  0  0  0  0  0  0  0  0
  -19.7477  -19.0754   11.5558 C   0  0  0  0  0  0  0  0  0  0  0  0
  -17.7960  -18.1270   11.9084 N   0  0  0  0  0  0  0  0  0  0  0  0
  -18.4071  -19.1255   11.3140 N   0  0  0  0  0  0  0  0  0  0  0  0
  -18.3753  -16.1901   13.2965 N   0  0  0  0  0  0  0  0  0  0  0  0
  1 17  2  0
 18  1  1  0
  1 21  1  0
  2 18  2  0
 19  2  1  0
  3 19  1  0
 20  3  2  0
  4  5  1  0
 21  4  2  0
  5 22  2  0
  5 24  1  0
  7  6  3  0
  8  7  1  0
  9  8  2  0
  8 13  1  0
  9 10  1  0
 14  9  1  0
 10 11  2  0
 11 12  1  0
 13 12  2  0
 15 14  1  0
 15 16  1  0
 15 20  1  0
 16 17  1  0
 16 19  2  0
 21 23  1  0
 22 23  1  0
M  END
$$$$
