
     RDKit          3D

 24 27  0  0  0  0  0  0  0  0999 V2000
  -13.2106  -10.4468   24.6728 C   0  0  0  0  0  0  0  0  0  0  0  0
  -13.0358  -12.0607   26.3626 C   0  0  0  0  0  0  0  0  0  0  0  0
  -13.0638  -11.0077   28.6466 C   0  0  0  0  0  0  0  0  0  0  0  0
  -12.9033  -10.5866   22.0777 C   0  0  0  0  0  0  0  0  0  0  0  0
  -13.0172   -9.7263   20.9893 C   0  0  0  0  0  0  0  0  0  0  0  0
  -13.0167   -3.8150   28.4116 N   0  0  0  0  0  0  0  0  0  0  0  0
  -13.3069   -4.7095   29.1716 C   0  0  0  0  0  0  0  0  0  0  0  0
  -13.6867   -5.9140   30.1694 C   0  0  0  0  0  0  0  0  0  0  0  0
  -13.4746   -6.9933   29.5068 C   0  0  0  0  0  0  0  0  0  0  0  0
  -12.8163   -7.9971   30.4737 C   0  0  0  0  0  0  0  0  0  0  0  0
  -12.6217   -7.6163   31.6827 C   0  0  0  0  0  0  0  0  0  0  0  0
  -12.9301   -6.3908   32.2938 C   0  0  0  0  0  0  0  0  0  0  0  0
  -13.5651   -5.3889   31.3641 C   0  0  0  0  0  0  0  0  0  0  0  0
  -13.5135   -7.4151   28.1347 C   0  0  0  0  0  0  0  0  0  0  0  0
  -13.2965   -8.8524   28.0146 N   0  0  0  0  0  0  0  0  0  0  0  0
  -13.2774   -9.6481   26.9142 C   0  0  0  0  0  0  0  0  0  0  0  0
  -13.3411   -9.1733   25.5155 C   0  0  0  0  0  0  0  0  0  0  0  0
  -13.0898  -11.5121   24.9785 C   0  0  0  0  0  0  0  0  0  0  0  0
  -13.1305  -11.0661   27.2326 C   0  0  0  0  0  0  0  0  0  0  0  0
  -13.1452   -9.7401   29.0846 C   0  0  0  0  0  0  0  0  0  0  0  0
  -13.2229  -10.0323   23.1750 C   0  0  0  0  0  0  0  0  0  0  0  0
  -13.4905   -8.5248   21.5634 N   0  0  0  0  0  0  0  0  0  0  0  0
  -13.5860   -8.7527   22.8394 N   0  0  0  0  0  0  0  0  0  0  0  0
  -12.8406   -9.9229   19.6059 N   0  0  0  0  0  0  0  0  0  0  0  0
  1 17  2  0
 18  1  1  0
  1 21  1  0
  2 18  2  0
 19  2  1  0
  3 19  1  0
 20  3  2  0
  4  5  1  0
 21  4  2  0
  5 22  2  0
  5 24  1  0
  7  6  3  0
  8  7  1  0
  9  8  2  0
  8 13  1  0
  9 10  1  0
 14  9  1  0
 10 11  2  0
 11 12  1  0
 13 12  2  0
 14 15  1  6
 15 16  1  0
 15 20  1  0
 16 17  1  0
 16 19  2  0
 21 23  1  0
 22 23  1  0
M  END
$$$$
