
     RDKit          3D

 24 27  0  0  0  0  0  0  0  0999 V2000
  -21.5575  -20.0109   12.0744 C   0  0  0  0  0  0  0  0  0  0  0  0
  -22.0432  -22.3248   12.0992 C   0  0  0  0  0  0  0  0  0  0  0  0
  -24.3988  -22.8148   11.4644 C   0  0  0  0  0  0  0  0  0  0  0  0
  -20.7375  -17.6032   12.4819 C   0  0  0  0  0  0  0  0  0  0  0  0
  -19.5076  -17.0192   12.8527 C   0  0  0  0  0  0  0  0  0  0  0  0
  -27.9423  -16.3822   10.6583 N   0  0  0  0  0  0  0  0  0  0  0  0
  -27.3516  -17.1411    9.9355 C   0  0  0  0  0  0  0  0  0  0  0  0
  -26.6413  -18.0234    9.0632 C   0  0  0  0  0  0  0  0  0  0  0  0
  -25.8801  -19.0263    9.4613 C   0  0  0  0  0  0  0  0  0  0  0  0
  -25.0143  -19.6136    8.5160 C   0  0  0  0  0  0  0  0  0  0  0  0
  -24.9852  -19.1458    7.2179 C   0  0  0  0  0  0  0  0  0  0  0  0
  -25.8017  -18.0874    6.8207 C   0  0  0  0  0  0  0  0  0  0  0  0
  -26.6460  -17.4968    7.7183 C   0  0  0  0  0  0  0  0  0  0  0  0
  -25.9456  -19.5939   10.7890 C   0  0  0  0  0  0  0  0  0  0  0  0
  -25.0766  -20.6758   11.1442 N   0  0  0  0  0  0  0  0  0  0  0  0
  -23.8013  -20.7158   11.5237 C   0  0  0  0  0  0  0  0  0  0  0  0
  -22.8499  -19.7273   11.7128 C   0  0  0  0  0  0  0  0  0  0  0  0
  -21.1214  -21.3184   12.2750 C   0  0  0  0  0  0  0  0  0  0  0  0
  -23.3223  -21.9881   11.7390 C   0  0  0  0  0  0  0  0  0  0  0  0
  -25.4440  -21.9929   11.1027 C   0  0  0  0  0  0  0  0  0  0  0  0
  -20.5885  -18.9518   12.3450 C   0  0  0  0  0  0  0  0  0  0  0  0
  -18.6595  -18.0713   12.9251 N   0  0  0  0  0  0  0  0  0  0  0  0
  -19.2761  -19.1910   12.6255 N   0  0  0  0  0  0  0  0  0  0  0  0
  -19.1813  -15.6811   13.0937 N   0  0  0  0  0  0  0  0  0  0  0  0
  1 17  2  0
 18  1  1  0
  1 21  1  0
  2 18  2  0
 19  2  1  0
  3 19  1  0
 20  3  2  0
  4  5  1  0
 21  4  2  0
  5 22  2  0
  5 24  1  0
  7  6  3  0
  8  7  1  0
  9  8  2  0
  8 13  1  0
  9 10  1  0
 14  9  1  0
 10 11  2  0
 11 12  1  0
 13 12  2  0
 15 14  1  0
 15 16  1  0
 15 20  1  0
 16 17  1  0
 16 19  2  0
 21 23  1  0
 22 23  1  0
M  END
$$$$
