
     RDKit          3D

 24 27  0  0  0  0  0  0  0  0999 V2000
  -20.8144  -17.9632   10.8031 C   0  0  0  0  0  0  0  0  0  0  0  0
  -21.7446  -17.6680    8.6494 C   0  0  0  0  0  0  0  0  0  0  0  0
  -23.8016  -19.0244    8.3015 C   0  0  0  0  0  0  0  0  0  0  0  0
  -19.2816  -18.3092   12.8442 C   0  0  0  0  0  0  0  0  0  0  0  0
  -18.1105  -17.6874   13.3272 C   0  0  0  0  0  0  0  0  0  0  0  0
  -26.2707  -22.5399   14.1862 N   0  0  0  0  0  0  0  0  0  0  0  0
  -25.3739  -22.7452   13.4111 C   0  0  0  0  0  0  0  0  0  0  0  0
  -24.2969  -23.0035   12.5071 C   0  0  0  0  0  0  0  0  0  0  0  0
  -23.9448  -22.2148   11.5084 C   0  0  0  0  0  0  0  0  0  0  0  0
  -23.0724  -22.7365   10.5311 C   0  0  0  0  0  0  0  0  0  0  0  0
  -22.6054  -24.0308   10.6387 C   0  0  0  0  0  0  0  0  0  0  0  0
  -22.9889  -24.8431   11.7053 C   0  0  0  0  0  0  0  0  0  0  0  0
  -23.8377  -24.3640   12.6631 C   0  0  0  0  0  0  0  0  0  0  0  0
  -24.3488  -20.8305   11.4098 C   0  0  0  0  0  0  0  0  0  0  0  0
  -23.8551  -20.0196   10.3373 N   0  0  0  0  0  0  0  0  0  0  0  0
  -22.8007  -19.2137   10.2326 C   0  0  0  0  0  0  0  0  0  0  0  0
  -21.7978  -18.8649   11.1216 C   0  0  0  0  0  0  0  0  0  0  0  0
  -20.7646  -17.3406    9.5582 C   0  0  0  0  0  0  0  0  0  0  0  0
  -22.7039  -18.5758    9.0168 C   0  0  0  0  0  0  0  0  0  0  0  0
  -24.4816  -19.8926    9.1278 C   0  0  0  0  0  0  0  0  0  0  0  0
  -19.7208  -17.6660   11.7248 C   0  0  0  0  0  0  0  0  0  0  0  0
  -17.8962  -16.6782   12.4514 N   0  0  0  0  0  0  0  0  0  0  0  0
  -18.8277  -16.6554   11.5265 N   0  0  0  0  0  0  0  0  0  0  0  0
  -17.3222  -17.9915   14.4413 N   0  0  0  0  0  0  0  0  0  0  0  0
  1 17  2  0
 18  1  1  0
  1 21  1  0
  2 18  2  0
 19  2  1  0
  3 19  1  0
 20  3  2  0
  4  5  1  0
 21  4  2  0
  5 22  2  0
  5 24  1  0
  7  6  3  0
  8  7  1  0
  9  8  2  0
  8 13  1  0
  9 10  1  0
 14  9  1  0
 10 11  2  0
 11 12  1  0
 13 12  2  0
 15 14  1  0
 15 16  1  0
 15 20  1  0
 16 17  1  0
 16 19  2  0
 21 23  1  0
 22 23  1  0
M  END
$$$$
