
     RDKit          3D

 24 27  0  0  0  0  0  0  0  0999 V2000
  -19.9453  -19.7983   10.8175 C   0  0  0  0  0  0  0  0  0  0  0  0
  -20.2160  -21.6364    9.3897 C   0  0  0  0  0  0  0  0  0  0  0  0
  -22.6326  -22.3079    9.2028 C   0  0  0  0  0  0  0  0  0  0  0  0
  -19.2577  -17.8090   12.3726 C   0  0  0  0  0  0  0  0  0  0  0  0
  -18.0876  -17.1337   12.7080 C   0  0  0  0  0  0  0  0  0  0  0  0
  -27.7237  -18.7532   12.5992 N   0  0  0  0  0  0  0  0  0  0  0  0
  -27.0651  -18.5379   11.6083 C   0  0  0  0  0  0  0  0  0  0  0  0
  -26.1997  -18.2345   10.2856 C   0  0  0  0  0  0  0  0  0  0  0  0
  -25.2838  -19.1341   10.2564 C   0  0  0  0  0  0  0  0  0  0  0  0
  -25.1417  -19.5892    8.7906 C   0  0  0  0  0  0  0  0  0  0  0  0
  -25.8938  -19.0251    7.9184 C   0  0  0  0  0  0  0  0  0  0  0  0
  -26.8556  -18.0167    8.0868 C   0  0  0  0  0  0  0  0  0  0  0  0
  -27.0199  -17.5633    9.5146 C   0  0  0  0  0  0  0  0  0  0  0  0
  -24.5392  -19.9143   11.2046 C   0  0  0  0  0  0  0  0  0  0  0  0
  -23.5211  -20.7231   10.5437 N   0  0  0  0  0  0  0  0  0  0  0  0
  -22.1765  -20.5491   10.4654 C   0  0  0  0  0  0  0  0  0  0  0  0
  -21.4049  -19.5176   11.1909 C   0  0  0  0  0  0  0  0  0  0  0  0
  -19.5001  -20.5820   10.1613 C   0  0  0  0  0  0  0  0  0  0  0  0
  -21.5179  -21.5354    9.6126 C   0  0  0  0  0  0  0  0  0  0  0  0
  -23.7702  -21.8467    9.7492 C   0  0  0  0  0  0  0  0  0  0  0  0
  -19.0525  -18.7790   11.5786 C   0  0  0  0  0  0  0  0  0  0  0  0
  -17.0825  -17.8468   12.0163 N   0  0  0  0  0  0  0  0  0  0  0  0
  -17.6971  -18.7903   11.3673 N   0  0  0  0  0  0  0  0  0  0  0  0
  -17.8314  -16.0663   13.5904 N   0  0  0  0  0  0  0  0  0  0  0  0
  1 17  2  0
 18  1  1  0
  1 21  1  0
  2 18  2  0
 19  2  1  0
  3 19  1  0
 20  3  2  0
  4  5  1  0
 21  4  2  0
  5 22  2  0
  5 24  1  0
  7  6  3  0
  8  7  1  0
  9  8  2  0
  8 13  1  0
  9 10  1  0
 14  9  1  0
 10 11  2  0
 11 12  1  0
 13 12  2  0
 14 15  1  6
 15 16  1  0
 15 20  1  0
 16 17  1  0
 16 19  2  0
 21 23  1  0
 22 23  1  0
M  END
$$$$
