
     RDKit          3D

 24 27  0  0  0  0  0  0  0  0999 V2000
  -20.7280  -18.0624   11.3412 C   0  0  0  0  0  0  0  0  0  0  0  0
  -21.9046  -18.4882    9.3349 C   0  0  0  0  0  0  0  0  0  0  0  0
  -23.9727  -19.8221    9.7032 C   0  0  0  0  0  0  0  0  0  0  0  0
  -18.8824  -17.8397   13.1242 C   0  0  0  0  0  0  0  0  0  0  0  0
  -17.7104  -17.0644   13.2531 C   0  0  0  0  0  0  0  0  0  0  0  0
  -22.8564  -21.1712   16.7450 N   0  0  0  0  0  0  0  0  0  0  0  0
  -23.6335  -20.4386   16.1912 C   0  0  0  0  0  0  0  0  0  0  0  0
  -24.5415  -19.5669   15.5135 C   0  0  0  0  0  0  0  0  0  0  0  0
  -24.6477  -19.4605   14.2016 C   0  0  0  0  0  0  0  0  0  0  0  0
  -25.3602  -18.3592   13.6841 C   0  0  0  0  0  0  0  0  0  0  0  0
  -25.9289  -17.4375   14.5396 C   0  0  0  0  0  0  0  0  0  0  0  0
  -25.8059  -17.5738   15.9219 C   0  0  0  0  0  0  0  0  0  0  0  0
  -25.1160  -18.6288   16.4494 C   0  0  0  0  0  0  0  0  0  0  0  0
  -24.1362  -20.4505   13.2811 C   0  0  0  0  0  0  0  0  0  0  0  0
  -23.7790  -20.0659   11.9483 N   0  0  0  0  0  0  0  0  0  0  0  0
  -22.7530  -19.3742   11.4577 C   0  0  0  0  0  0  0  0  0  0  0  0
  -21.6578  -18.7738   12.0560 C   0  0  0  0  0  0  0  0  0  0  0  0
  -20.8297  -17.9005    9.9616 C   0  0  0  0  0  0  0  0  0  0  0  0
  -22.8047  -19.1895   10.0947 C   0  0  0  0  0  0  0  0  0  0  0  0
  -24.5428  -20.3386   10.8465 C   0  0  0  0  0  0  0  0  0  0  0  0
  -19.5385  -17.5021   11.9774 C   0  0  0  0  0  0  0  0  0  0  0  0
  -17.7181  -16.2816   12.1493 N   0  0  0  0  0  0  0  0  0  0  0  0
  -18.7761  -16.5242   11.4108 N   0  0  0  0  0  0  0  0  0  0  0  0
  -16.7406  -17.0571   14.2604 N   0  0  0  0  0  0  0  0  0  0  0  0
  1 17  2  0
 18  1  1  0
  1 21  1  0
  2 18  2  0
 19  2  1  0
  3 19  1  0
 20  3  2  0
  4  5  1  0
 21  4  2  0
  5 22  2  0
  5 24  1  0
  7  6  3  0
  8  7  1  0
  9  8  2  0
  8 13  1  0
  9 10  1  0
 14  9  1  0
 10 11  2  0
 11 12  1  0
 13 12  2  0
 15 14  1  0
 15 16  1  0
 15 20  1  0
 16 17  1  0
 16 19  2  0
 21 23  1  0
 22 23  1  0
M  END
$$$$
