
     RDKit          3D

 24 27  0  0  0  0  0  0  0  0999 V2000
  -21.4567  -19.4004   12.4502 C   0  0  0  0  0  0  0  0  0  0  0  0
  -22.9019  -21.0167   13.3387 C   0  0  0  0  0  0  0  0  0  0  0  0
  -24.9775  -21.2633   11.9398 C   0  0  0  0  0  0  0  0  0  0  0  0
  -19.6756  -17.5850   11.8334 C   0  0  0  0  0  0  0  0  0  0  0  0
  -18.4047  -17.2152   12.2642 C   0  0  0  0  0  0  0  0  0  0  0  0
  -24.9968  -17.4167    5.8122 N   0  0  0  0  0  0  0  0  0  0  0  0
  -25.7164  -17.7485    6.7256 C   0  0  0  0  0  0  0  0  0  0  0  0
  -26.6901  -18.1911    7.9283 C   0  0  0  0  0  0  0  0  0  0  0  0
  -25.9166  -18.4872    8.9097 C   0  0  0  0  0  0  0  0  0  0  0  0
  -26.5696  -17.9247   10.1876 C   0  0  0  0  0  0  0  0  0  0  0  0
  -27.6921  -17.3174   10.0625 C   0  0  0  0  0  0  0  0  0  0  0  0
  -28.4557  -17.0803    8.9088 C   0  0  0  0  0  0  0  0  0  0  0  0
  -27.8311  -17.6122    7.6446 C   0  0  0  0  0  0  0  0  0  0  0  0
  -24.5897  -19.0062    9.0892 C   0  0  0  0  0  0  0  0  0  0  0  0
  -24.4766  -19.7552   10.3356 N   0  0  0  0  0  0  0  0  0  0  0  0
  -23.4572  -19.8207   11.2306 C   0  0  0  0  0  0  0  0  0  0  0  0
  -22.2335  -18.9919   11.1938 C   0  0  0  0  0  0  0  0  0  0  0  0
  -21.7011  -20.1395   13.2483 C   0  0  0  0  0  0  0  0  0  0  0  0
  -23.6982  -20.7780   12.3074 C   0  0  0  0  0  0  0  0  0  0  0  0
  -25.4210  -20.6650   10.8216 C   0  0  0  0  0  0  0  0  0  0  0  0
  -20.1653  -18.5382   12.5153 C   0  0  0  0  0  0  0  0  0  0  0  0
  -18.1621  -18.0740   13.3599 N   0  0  0  0  0  0  0  0  0  0  0  0
  -19.2143  -18.8304   13.4599 N   0  0  0  0  0  0  0  0  0  0  0  0
  -17.5310  -16.1869   11.8601 N   0  0  0  0  0  0  0  0  0  0  0  0
  1 17  2  0
 18  1  1  0
  1 21  1  0
  2 18  2  0
 19  2  1  0
  3 19  1  0
 20  3  2  0
  4  5  1  0
 21  4  2  0
  5 22  2  0
  5 24  1  0
  7  6  3  0
  8  7  1  0
  9  8  2  0
  8 13  1  0
  9 10  1  0
 14  9  1  0
 10 11  2  0
 11 12  1  0
 13 12  2  0
 14 15  1  6
 15 16  1  0
 15 20  1  0
 16 17  1  0
 16 19  2  0
 21 23  1  0
 22 23  1  0
M  END
$$$$
