
     RDKit          3D

 24 27  0  0  0  0  0  0  0  0999 V2000
  -20.9188  -19.3996   12.5604 C   0  0  0  0  0  0  0  0  0  0  0  0
  -21.3999  -21.6328   13.0819 C   0  0  0  0  0  0  0  0  0  0  0  0
  -23.7390  -22.2539   12.3972 C   0  0  0  0  0  0  0  0  0  0  0  0
  -20.1061  -16.9217   12.3414 C   0  0  0  0  0  0  0  0  0  0  0  0
  -18.9002  -16.2322   12.4300 C   0  0  0  0  0  0  0  0  0  0  0  0
  -27.7422  -17.6126    8.8226 N   0  0  0  0  0  0  0  0  0  0  0  0
  -26.6264  -18.0274    8.6100 C   0  0  0  0  0  0  0  0  0  0  0  0
  -25.1445  -18.5946    8.3405 C   0  0  0  0  0  0  0  0  0  0  0  0
  -24.8497  -19.2993    9.3728 C   0  0  0  0  0  0  0  0  0  0  0  0
  -24.1274  -20.5637    8.8675 C   0  0  0  0  0  0  0  0  0  0  0  0
  -23.9468  -20.6788    7.6032 C   0  0  0  0  0  0  0  0  0  0  0  0
  -24.3058  -19.8035    6.5662 C   0  0  0  0  0  0  0  0  0  0  0  0
  -25.0237  -18.5643    7.0358 C   0  0  0  0  0  0  0  0  0  0  0  0
  -25.1689  -19.3064   10.7728 C   0  0  0  0  0  0  0  0  0  0  0  0
  -24.3566  -20.2769   11.4978 N   0  0  0  0  0  0  0  0  0  0  0  0
  -23.0733  -20.1951   11.9350 C   0  0  0  0  0  0  0  0  0  0  0  0
  -22.2289  -18.9827   11.8832 C   0  0  0  0  0  0  0  0  0  0  0  0
  -20.6102  -20.3715   13.0112 C   0  0  0  0  0  0  0  0  0  0  0  0
  -22.5896  -21.4368   12.5331 C   0  0  0  0  0  0  0  0  0  0  0  0
  -24.7475  -21.5809   11.8182 C   0  0  0  0  0  0  0  0  0  0  0  0
  -19.9806  -18.1610   12.5899 C   0  0  0  0  0  0  0  0  0  0  0  0
  -17.9729  -17.2308   12.8041 N   0  0  0  0  0  0  0  0  0  0  0  0
  -18.6506  -18.3375   12.8763 N   0  0  0  0  0  0  0  0  0  0  0  0
  -18.5809  -14.8657   12.3086 N   0  0  0  0  0  0  0  0  0  0  0  0
  1 17  2  0
 18  1  1  0
  1 21  1  0
  2 18  2  0
 19  2  1  0
  3 19  1  0
 20  3  2  0
  4  5  1  0
 21  4  2  0
  5 22  2  0
  5 24  1  0
  7  6  3  0
  8  7  1  0
  9  8  2  0
  8 13  1  0
  9 10  1  0
 14  9  1  0
 10 11  2  0
 11 12  1  0
 13 12  2  0
 14 15  1  6
 15 16  1  0
 15 20  1  0
 16 17  1  0
 16 19  2  0
 21 23  1  0
 22 23  1  0
M  END
$$$$
