
     RDKit          3D

 24 27  0  0  0  0  0  0  0  0999 V2000
  -19.8308  -18.3240   12.1096 C   0  0  0  0  0  0  0  0  0  0  0  0
  -21.6219  -19.8671   12.1516 C   0  0  0  0  0  0  0  0  0  0  0  0
  -23.7848  -18.8058   12.7738 C   0  0  0  0  0  0  0  0  0  0  0  0
  -17.6573  -16.9608   11.8805 C   0  0  0  0  0  0  0  0  0  0  0  0
  -16.2831  -17.2780   11.8312 C   0  0  0  0  0  0  0  0  0  0  0  0
  -23.3309  -11.5346   13.3201 N   0  0  0  0  0  0  0  0  0  0  0  0
  -22.9790  -12.4253   14.0482 C   0  0  0  0  0  0  0  0  0  0  0  0
  -22.5697  -13.5004   14.8970 C   0  0  0  0  0  0  0  0  0  0  0  0
  -22.7532  -14.7812   14.6335 C   0  0  0  0  0  0  0  0  0  0  0  0
  -22.5728  -15.7038   15.6845 C   0  0  0  0  0  0  0  0  0  0  0  0
  -22.2070  -15.2619   16.9397 C   0  0  0  0  0  0  0  0  0  0  0  0
  -22.0155  -13.9039   17.1922 C   0  0  0  0  0  0  0  0  0  0  0  0
  -22.1890  -12.9883   16.1927 C   0  0  0  0  0  0  0  0  0  0  0  0
  -23.0551  -15.2844   13.3126 C   0  0  0  0  0  0  0  0  0  0  0  0
  -23.0134  -16.6940   13.0612 N   0  0  0  0  0  0  0  0  0  0  0  0
  -22.0231  -17.5173   12.7247 C   0  0  0  0  0  0  0  0  0  0  0  0
  -20.6730  -17.3119   12.4943 C   0  0  0  0  0  0  0  0  0  0  0  0
  -20.2856  -19.6277   11.9269 C   0  0  0  0  0  0  0  0  0  0  0  0
  -22.4207  -18.8215   12.5359 C   0  0  0  0  0  0  0  0  0  0  0  0
  -24.1152  -17.5046   13.0845 C   0  0  0  0  0  0  0  0  0  0  0  0
  -18.3958  -18.1053   11.9465 C   0  0  0  0  0  0  0  0  0  0  0  0
  -16.2623  -18.6304   11.8738 N   0  0  0  0  0  0  0  0  0  0  0  0
  -17.4808  -19.1157   11.9332 N   0  0  0  0  0  0  0  0  0  0  0  0
  -15.1668  -16.4399   11.7496 N   0  0  0  0  0  0  0  0  0  0  0  0
  1 17  2  0
 18  1  1  0
  1 21  1  0
  2 18  2  0
 19  2  1  0
  3 19  1  0
 20  3  2  0
  4  5  1  0
 21  4  2  0
  5 22  2  0
  5 24  1  0
  7  6  3  0
  8  7  1  0
  9  8  2  0
  8 13  1  0
  9 10  1  0
 14  9  1  0
 10 11  2  0
 11 12  1  0
 13 12  2  0
 15 14  1  0
 15 16  1  0
 15 20  1  0
 16 17  1  0
 16 19  2  0
 21 23  1  0
 22 23  1  0
M  END
$$$$
