
     RDKit          3D

 24 27  0  0  0  0  0  0  0  0999 V2000
  -19.9774  -17.8177   13.5019 C   0  0  0  0  0  0  0  0  0  0  0  0
  -21.5896  -17.5350   15.2083 C   0  0  0  0  0  0  0  0  0  0  0  0
  -23.6377  -18.8949   14.8243 C   0  0  0  0  0  0  0  0  0  0  0  0
  -18.0755  -17.7270   11.7671 C   0  0  0  0  0  0  0  0  0  0  0  0
  -16.8801  -16.9884   11.6373 C   0  0  0  0  0  0  0  0  0  0  0  0
  -22.1778  -22.8794    8.7755 N   0  0  0  0  0  0  0  0  0  0  0  0
  -22.7998  -21.8803    9.0247 C   0  0  0  0  0  0  0  0  0  0  0  0
  -23.5575  -20.7070    9.3300 C   0  0  0  0  0  0  0  0  0  0  0  0
  -23.8141  -20.2712   10.5497 C   0  0  0  0  0  0  0  0  0  0  0  0
  -24.8120  -19.2867   10.7027 C   0  0  0  0  0  0  0  0  0  0  0  0
  -25.4813  -18.8006    9.5979 C   0  0  0  0  0  0  0  0  0  0  0  0
  -25.1896  -19.2744    8.3192 C   0  0  0  0  0  0  0  0  0  0  0  0
  -24.2308  -20.2321    8.1438 C   0  0  0  0  0  0  0  0  0  0  0  0
  -23.0758  -20.6978   11.7168 C   0  0  0  0  0  0  0  0  0  0  0  0
  -23.0064  -19.8456   12.8660 N   0  0  0  0  0  0  0  0  0  0  0  0
  -22.0649  -19.0186   13.3152 C   0  0  0  0  0  0  0  0  0  0  0  0
  -20.8100  -18.6812   12.8364 C   0  0  0  0  0  0  0  0  0  0  0  0
  -20.3466  -17.2240   14.7065 C   0  0  0  0  0  0  0  0  0  0  0  0
  -22.3837  -18.4024   14.5040 C   0  0  0  0  0  0  0  0  0  0  0  0
  -23.9861  -19.7691   13.8177 C   0  0  0  0  0  0  0  0  0  0  0  0
  -18.6897  -17.4131   12.9434 C   0  0  0  0  0  0  0  0  0  0  0  0
  -16.8346  -16.2465   12.7682 N   0  0  0  0  0  0  0  0  0  0  0  0
  -17.8742  -16.4925   13.5314 N   0  0  0  0  0  0  0  0  0  0  0  0
  -15.9278  -16.9871   10.6133 N   0  0  0  0  0  0  0  0  0  0  0  0
  1 17  2  0
 18  1  1  0
  1 21  1  0
  2 18  2  0
 19  2  1  0
  3 19  1  0
 20  3  2  0
  4  5  1  0
 21  4  2  0
  5 22  2  0
  5 24  1  0
  7  6  3  0
  8  7  1  0
  9  8  2  0
  8 13  1  0
  9 10  1  0
 14  9  1  0
 10 11  2  0
 11 12  1  0
 13 12  2  0
 15 14  1  0
 15 16  1  0
 15 20  1  0
 16 17  1  0
 16 19  2  0
 21 23  1  0
 22 23  1  0
M  END
$$$$
