
     RDKit          3D

 26 28  0  0  0  0  0  0  0  0999 V2000
  -14.9350  -23.3225   18.0117 C   0  0  0  0  0  0  0  0  0  0  0  0
  -16.2021  -22.6918   17.7088 C   0  0  0  0  0  0  0  0  0  0  0  0
  -18.3446  -21.7067   18.2041 C   0  0  0  0  0  0  0  0  0  0  0  0
  -17.1467  -22.3127   18.6105 C   0  0  0  0  0  0  0  0  0  0  0  0
  -16.4822  -22.4500   16.3732 C   0  0  0  0  0  0  0  0  0  0  0  0
  -17.6426  -21.8595   15.9374 C   0  0  0  0  0  0  0  0  0  0  0  0
  -18.5679  -21.4917   16.8647 C   0  0  0  0  0  0  0  0  0  0  0  0
  -19.3301  -21.3147   19.1894 C   0  0  0  0  0  0  0  0  0  0  0  0
  -21.1767  -20.5622   21.0635 C   0  0  0  0  0  0  0  0  0  0  0  0
  -21.5793  -21.3493   20.0104 C   0  0  0  0  0  0  0  0  0  0  0  0
  -20.6510  -21.7295   19.0655 C   0  0  0  0  0  0  0  0  0  0  0  0
  -19.8611  -20.1530   21.1809 C   0  0  0  0  0  0  0  0  0  0  0  0
  -18.9296  -20.5232   20.2499 C   0  0  0  0  0  0  0  0  0  0  0  0
  -16.9277  -22.5235   19.9234 F   0  0  0  0  0  0  0  0  0  0  0  0
  -14.3151  -23.9609   17.0812 O   0  0  0  0  0  0  0  0  0  0  0  0
  -14.2651  -23.3251   19.2531 N   0  0  0  0  0  0  0  0  0  0  0  0
  -13.0272  -24.0217   19.3949 N   0  0  0  0  0  0  0  0  0  0  0  0
  -12.5595  -24.0761   21.0460 S   0  0  1  0  0  6  0  0  0  0  0  0
  -13.6574  -24.4900   21.9481 O   0  0  0  0  0  0  0  0  0  0  0  0
  -11.4634  -25.1082   21.1568 O   0  0  0  0  0  0  0  0  0  0  0  0
  -11.8963  -22.5276   21.5101 C   0  0  0  0  0  0  0  0  0  0  0  0
  -12.5419  -21.7292   22.4556 C   0  0  0  0  0  0  0  0  0  0  0  0
  -12.0348  -20.5145   22.8277 C   0  0  0  0  0  0  0  0  0  0  0  0
  -10.8579  -20.0544   22.2636 C   0  0  0  0  0  0  0  0  0  0  0  0
  -10.1984  -20.8149   21.3310 C   0  0  0  0  0  0  0  0  0  0  0  0
  -10.7403  -22.0346   20.9808 C   0  0  0  0  0  0  0  0  0  0  0  0
  2  1  1  0
  1 15  2  0
  1 16  1  0
  4  2  2  0
  2  5  1  0
  3  4  1  0
  3  7  2  0
  8  3  1  0
  4 14  1  0
  6  5  2  0
  7  6  1  0
 11  8  2  0
  8 13  1  0
 10  9  2  0
  9 12  1  0
 10 11  1  0
 12 13  2  0
 16 17  1  0
 18 17  1  6
 18 19  2  0
 18 20  2  0
 18 21  1  0
 21 22  2  0
 21 26  1  0
 22 23  1  0
 23 24  2  0
 24 25  1  0
 25 26  2  0
M  END
$$$$
