
     RDKit          3D

 26 28  0  0  0  0  0  0  0  0999 V2000
  -16.9150  -21.7044   20.0846 C   0  0  0  0  0  0  0  0  0  0  0  0
  -17.2932  -21.7092   18.6913 C   0  0  0  0  0  0  0  0  0  0  0  0
  -17.0690  -22.3686   16.3483 C   0  0  0  0  0  0  0  0  0  0  0  0
  -16.6694  -22.4077   17.6896 C   0  0  0  0  0  0  0  0  0  0  0  0
  -18.3931  -20.9115   18.3545 C   0  0  0  0  0  0  0  0  0  0  0  0
  -18.8011  -20.8579   17.0527 C   0  0  0  0  0  0  0  0  0  0  0  0
  -18.1533  -21.5735   16.0573 C   0  0  0  0  0  0  0  0  0  0  0  0
  -16.3709  -23.1302   15.3225 C   0  0  0  0  0  0  0  0  0  0  0  0
  -15.0295  -24.6022   13.3393 C   0  0  0  0  0  0  0  0  0  0  0  0
  -16.4069  -24.5379   13.3588 C   0  0  0  0  0  0  0  0  0  0  0  0
  -17.0715  -23.8077   14.3426 C   0  0  0  0  0  0  0  0  0  0  0  0
  -14.3205  -23.9282   14.3146 C   0  0  0  0  0  0  0  0  0  0  0  0
  -14.9958  -23.2095   15.2819 C   0  0  0  0  0  0  0  0  0  0  0  0
  -15.6162  -23.1951   17.9573 F   0  0  0  0  0  0  0  0  0  0  0  0
  -17.7265  -21.2010   20.9438 O   0  0  0  0  0  0  0  0  0  0  0  0
  -15.7038  -22.2187   20.5708 N   0  0  0  0  0  0  0  0  0  0  0  0
  -15.3902  -22.2534   21.9432 N   0  0  0  0  0  0  0  0  0  0  0  0
  -14.4318  -23.6161   22.3415 S   0  0  1  0  0  6  0  0  0  0  0  0
  -13.4504  -23.9613   21.2715 O   0  0  0  0  0  0  0  0  0  0  0  0
  -13.7795  -23.4659   23.6844 O   0  0  0  0  0  0  0  0  0  0  0  0
  -15.5306  -24.9957   22.4823 C   0  0  0  0  0  0  0  0  0  0  0  0
  -15.6562  -25.9199   21.4710 C   0  0  0  0  0  0  0  0  0  0  0  0
  -16.5123  -26.9978   21.5765 C   0  0  0  0  0  0  0  0  0  0  0  0
  -17.2741  -27.1802   22.7113 C   0  0  0  0  0  0  0  0  0  0  0  0
  -17.1555  -26.2638   23.7245 C   0  0  0  0  0  0  0  0  0  0  0  0
  -16.3005  -25.1861   23.6208 C   0  0  0  0  0  0  0  0  0  0  0  0
  2  1  1  0
  1 15  2  0
  1 16  1  0
  4  2  2  0
  2  5  1  0
  3  4  1  0
  3  7  2  0
  8  3  1  0
  4 14  1  0
  6  5  2  0
  7  6  1  0
 11  8  2  0
  8 13  1  0
 10  9  2  0
  9 12  1  0
 10 11  1  0
 12 13  2  0
 16 17  1  0
 18 17  1  6
 18 19  2  0
 18 20  2  0
 18 21  1  0
 21 22  2  0
 21 26  1  0
 22 23  1  0
 23 24  2  0
 24 25  1  0
 25 26  2  0
M  END
$$$$
