
     RDKit          3D

 26 28  0  0  0  0  0  0  0  0999 V2000
  -15.9942  -24.2718   19.0611 C   0  0  0  0  0  0  0  0  0  0  0  0
  -16.7281  -23.3708   18.2044 C   0  0  0  0  0  0  0  0  0  0  0  0
  -18.4031  -21.6556   17.7280 C   0  0  0  0  0  0  0  0  0  0  0  0
  -17.7113  -22.5019   18.6029 C   0  0  0  0  0  0  0  0  0  0  0  0
  -16.3961  -23.4144   16.8452 C   0  0  0  0  0  0  0  0  0  0  0  0
  -17.0574  -22.5980   15.9733 C   0  0  0  0  0  0  0  0  0  0  0  0
  -18.0485  -21.7278   16.4009 C   0  0  0  0  0  0  0  0  0  0  0  0
  -19.4400  -20.7509   18.2035 C   0  0  0  0  0  0  0  0  0  0  0  0
  -21.4460  -19.0066   19.1159 C   0  0  0  0  0  0  0  0  0  0  0  0
  -21.6458  -19.7861   17.9960 C   0  0  0  0  0  0  0  0  0  0  0  0
  -20.6505  -20.6509   17.5441 C   0  0  0  0  0  0  0  0  0  0  0  0
  -20.2392  -19.0995   19.7818 C   0  0  0  0  0  0  0  0  0  0  0  0
  -19.2642  -19.9621   19.3196 C   0  0  0  0  0  0  0  0  0  0  0  0
  -18.0631  -22.4121   19.8948 F   0  0  0  0  0  0  0  0  0  0  0  0
  -15.6663  -25.4277   18.6066 O   0  0  0  0  0  0  0  0  0  0  0  0
  -15.6101  -23.9668   20.3754 N   0  0  0  0  0  0  0  0  0  0  0  0
  -14.9842  -24.9037   21.2201 N   0  0  0  0  0  0  0  0  0  0  0  0
  -13.2769  -24.8018   21.1270 S   0  0  1  0  0  6  0  0  0  0  0  0
  -12.5930  -25.8285   21.9669 O   0  0  0  0  0  0  0  0  0  0  0  0
  -12.7939  -24.8157   19.7064 O   0  0  0  0  0  0  0  0  0  0  0  0
  -12.8181  -23.2247   21.7849 C   0  0  0  0  0  0  0  0  0  0  0  0
  -13.7093  -22.1775   21.8276 C   0  0  0  0  0  0  0  0  0  0  0  0
  -13.3557  -20.9453   22.3400 C   0  0  0  0  0  0  0  0  0  0  0  0
  -12.0849  -20.7273   22.8288 C   0  0  0  0  0  0  0  0  0  0  0  0
  -11.1898  -21.7655   22.7903 C   0  0  0  0  0  0  0  0  0  0  0  0
  -11.5414  -22.9975   22.2786 C   0  0  0  0  0  0  0  0  0  0  0  0
  2  1  1  0
  1 15  2  0
  1 16  1  0
  4  2  2  0
  2  5  1  0
  3  4  1  0
  3  7  2  0
  8  3  1  0
  4 14  1  0
  6  5  2  0
  7  6  1  0
 11  8  2  0
  8 13  1  0
 10  9  2  0
  9 12  1  0
 10 11  1  0
 12 13  2  0
 16 17  1  0
 18 17  1  6
 18 19  2  0
 18 20  2  0
 18 21  1  0
 21 22  2  0
 21 26  1  0
 22 23  1  0
 23 24  2  0
 24 25  1  0
 25 26  2  0
M  END
$$$$
