
     RDKit          3D

 26 28  0  0  0  0  0  0  0  0999 V2000
  -12.0666  -20.9604   20.0828 C   0  0  0  0  0  0  0  0  0  0  0  0
  -13.3370  -21.6522   20.1355 C   0  0  0  0  0  0  0  0  0  0  0  0
  -15.4928  -22.3609   19.3253 C   0  0  0  0  0  0  0  0  0  0  0  0
  -14.2928  -21.6518   19.1683 C   0  0  0  0  0  0  0  0  0  0  0  0
  -13.6077  -22.3860   21.2796 C   0  0  0  0  0  0  0  0  0  0  0  0
  -14.7698  -23.0922   21.4693 C   0  0  0  0  0  0  0  0  0  0  0  0
  -15.7065  -23.0716   20.4826 C   0  0  0  0  0  0  0  0  0  0  0  0
  -16.4903  -22.3401   18.2765 C   0  0  0  0  0  0  0  0  0  0  0  0
  -18.3919  -22.2942   16.3092 C   0  0  0  0  0  0  0  0  0  0  0  0
  -17.1025  -22.6414   15.9812 C   0  0  0  0  0  0  0  0  0  0  0  0
  -16.1433  -22.6651   16.9703 C   0  0  0  0  0  0  0  0  0  0  0  0
  -18.7306  -21.9720   17.6105 C   0  0  0  0  0  0  0  0  0  0  0  0
  -17.7881  -21.9916   18.6019 C   0  0  0  0  0  0  0  0  0  0  0  0
  -14.0832  -20.9550   18.0340 F   0  0  0  0  0  0  0  0  0  0  0  0
  -11.2121  -21.1475   21.0274 O   0  0  0  0  0  0  0  0  0  0  0  0
  -11.6288  -20.0677   19.0821 N   0  0  0  0  0  0  0  0  0  0  0  0
  -10.9112  -18.8875   19.4424 N   0  0  0  0  0  0  0  0  0  0  0  0
   -9.2225  -19.1373   19.2591 S   0  0  1  0  0  6  0  0  0  0  0  0
   -8.6127  -19.8517   20.4028 O   0  0  0  0  0  0  0  0  0  0  0  0
   -9.0376  -19.9972   18.0322 O   0  0  0  0  0  0  0  0  0  0  0  0
   -8.4394  -17.6023   18.9695 C   0  0  0  0  0  0  0  0  0  0  0  0
   -8.9163  -16.4341   19.5663 C   0  0  0  0  0  0  0  0  0  0  0  0
   -8.3138  -15.2256   19.3479 C   0  0  0  0  0  0  0  0  0  0  0  0
   -7.2077  -15.1439   18.5204 C   0  0  0  0  0  0  0  0  0  0  0  0
   -6.7137  -16.2737   17.9183 C   0  0  0  0  0  0  0  0  0  0  0  0
   -7.3478  -17.4747   18.1623 C   0  0  0  0  0  0  0  0  0  0  0  0
  2  1  1  0
  1 15  2  0
  1 16  1  0
  4  2  2  0
  2  5  1  0
  3  4  1  0
  3  7  2  0
  8  3  1  0
  4 14  1  0
  6  5  2  0
  7  6  1  0
 11  8  2  0
  8 13  1  0
 10  9  2  0
  9 12  1  0
 10 11  1  0
 12 13  2  0
 16 17  1  0
 18 17  1  1
 18 19  2  0
 18 20  2  0
 18 21  1  0
 21 22  2  0
 21 26  1  0
 22 23  1  0
 23 24  2  0
 24 25  1  0
 25 26  2  0
M  END
$$$$
