
     RDKit          3D

 26 28  0  0  0  0  0  0  0  0999 V2000
  -15.1217  -23.0390   18.8893 C   0  0  0  0  0  0  0  0  0  0  0  0
  -15.9976  -22.2871   18.0222 C   0  0  0  0  0  0  0  0  0  0  0  0
  -18.0239  -21.0277   17.4904 C   0  0  0  0  0  0  0  0  0  0  0  0
  -17.2044  -21.7394   18.3748 C   0  0  0  0  0  0  0  0  0  0  0  0
  -15.5589  -22.1253   16.7028 C   0  0  0  0  0  0  0  0  0  0  0  0
  -16.3414  -21.4347   15.8225 C   0  0  0  0  0  0  0  0  0  0  0  0
  -17.5584  -20.8903   16.2032 C   0  0  0  0  0  0  0  0  0  0  0  0
  -19.2978  -20.4661   17.9163 C   0  0  0  0  0  0  0  0  0  0  0  0
  -21.7556  -19.3760   18.7350 C   0  0  0  0  0  0  0  0  0  0  0  0
  -20.8724  -18.6342   17.9791 C   0  0  0  0  0  0  0  0  0  0  0  0
  -19.6537  -19.1755   17.5734 C   0  0  0  0  0  0  0  0  0  0  0  0
  -21.4088  -20.6672   19.0826 C   0  0  0  0  0  0  0  0  0  0  0  0
  -20.1967  -21.1873   18.6718 C   0  0  0  0  0  0  0  0  0  0  0  0
  -17.6690  -21.8560   19.6284 F   0  0  0  0  0  0  0  0  0  0  0  0
  -14.3624  -23.9373   18.3729 O   0  0  0  0  0  0  0  0  0  0  0  0
  -15.0429  -22.8532   20.2776 N   0  0  0  0  0  0  0  0  0  0  0  0
  -14.1745  -23.6014   21.0954 N   0  0  0  0  0  0  0  0  0  0  0  0
  -14.8221  -23.8339   22.6641 S   0  0  1  0  0  6  0  0  0  0  0  0
  -13.7877  -24.2458   23.6579 O   0  0  0  0  0  0  0  0  0  0  0  0
  -15.6104  -22.6430   23.1243 O   0  0  0  0  0  0  0  0  0  0  0  0
  -15.9753  -25.1712   22.5526 C   0  0  0  0  0  0  0  0  0  0  0  0
  -17.3333  -24.9527   22.5817 C   0  0  0  0  0  0  0  0  0  0  0  0
  -18.2367  -25.9930   22.4951 C   0  0  0  0  0  0  0  0  0  0  0  0
  -17.7982  -27.2948   22.3756 C   0  0  0  0  0  0  0  0  0  0  0  0
  -16.4461  -27.5221   22.3457 C   0  0  0  0  0  0  0  0  0  0  0  0
  -15.5419  -26.4837   22.4322 C   0  0  0  0  0  0  0  0  0  0  0  0
  2  1  1  0
  1 15  2  0
  1 16  1  0
  4  2  2  0
  2  5  1  0
  3  4  1  0
  3  7  2  0
  8  3  1  0
  4 14  1  0
  6  5  2  0
  7  6  1  0
 11  8  2  0
  8 13  1  0
 10  9  2  0
  9 12  1  0
 10 11  1  0
 12 13  2  0
 16 17  1  0
 18 17  1  6
 18 19  2  0
 18 20  2  0
 18 21  1  0
 21 22  2  0
 21 26  1  0
 22 23  1  0
 23 24  2  0
 24 25  1  0
 25 26  2  0
M  END
$$$$
