
     RDKit          3D

 26 28  0  0  0  0  0  0  0  0999 V2000
  -17.2320  -23.7648   22.2491 C   0  0  0  0  0  0  0  0  0  0  0  0
  -17.3764  -25.1526   22.6202 C   0  0  0  0  0  0  0  0  0  0  0  0
  -16.5480  -27.3590   23.2685 C   0  0  0  0  0  0  0  0  0  0  0  0
  -16.3551  -26.0152   22.9258 C   0  0  0  0  0  0  0  0  0  0  0  0
  -18.6872  -25.6427   22.6528 C   0  0  0  0  0  0  0  0  0  0  0  0
  -18.8997  -26.9499   22.9845 C   0  0  0  0  0  0  0  0  0  0  0  0
  -17.8499  -27.8028   23.2894 C   0  0  0  0  0  0  0  0  0  0  0  0
  -15.4276  -28.2333   23.5844 C   0  0  0  0  0  0  0  0  0  0  0  0
  -13.2621  -29.9163   24.1987 C   0  0  0  0  0  0  0  0  0  0  0  0
  -13.3716  -28.6692   24.7770 C   0  0  0  0  0  0  0  0  0  0  0  0
  -14.4458  -27.8351   24.4719 C   0  0  0  0  0  0  0  0  0  0  0  0
  -14.2385  -30.3233   23.3103 C   0  0  0  0  0  0  0  0  0  0  0  0
  -15.2961  -29.4834   23.0197 C   0  0  0  0  0  0  0  0  0  0  0  0
  -15.0802  -25.5964   22.9193 F   0  0  0  0  0  0  0  0  0  0  0  0
  -18.1309  -22.9276   22.6250 O   0  0  0  0  0  0  0  0  0  0  0  0
  -16.1620  -23.2614   21.4944 N   0  0  0  0  0  0  0  0  0  0  0  0
  -15.9891  -21.8862   21.2459 N   0  0  0  0  0  0  0  0  0  0  0  0
  -15.2266  -21.6041   19.7382 S   0  0  1  0  0  6  0  0  0  0  0  0
  -14.5210  -20.2900   19.6877 O   0  0  0  0  0  0  0  0  0  0  0  0
  -14.3347  -22.7439   19.3422 O   0  0  0  0  0  0  0  0  0  0  0  0
  -16.5062  -21.5368   18.5181 C   0  0  0  0  0  0  0  0  0  0  0  0
  -16.7659  -22.6044   17.6901 C   0  0  0  0  0  0  0  0  0  0  0  0
  -17.7632  -22.5563   16.7367 C   0  0  0  0  0  0  0  0  0  0  0  0
  -18.5356  -21.4241   16.5861 C   0  0  0  0  0  0  0  0  0  0  0  0
  -18.2839  -20.3550   17.4071 C   0  0  0  0  0  0  0  0  0  0  0  0
  -17.2877  -20.4012   18.3604 C   0  0  0  0  0  0  0  0  0  0  0  0
  2  1  1  0
  1 15  2  0
  1 16  1  0
  4  2  2  0
  2  5  1  0
  3  4  1  0
  3  7  2  0
  8  3  1  0
  4 14  1  0
  6  5  2  0
  7  6  1  0
 11  8  2  0
  8 13  1  0
 10  9  2  0
  9 12  1  0
 10 11  1  0
 12 13  2  0
 16 17  1  0
 18 17  1  1
 18 19  2  0
 18 20  2  0
 18 21  1  0
 21 22  2  0
 21 26  1  0
 22 23  1  0
 23 24  2  0
 24 25  1  0
 25 26  2  0
M  END
$$$$
