
     RDKit          3D

 26 28  0  0  0  0  0  0  0  0999 V2000
  -14.6349  -22.9787   19.2430 C   0  0  0  0  0  0  0  0  0  0  0  0
  -15.7470  -22.6711   18.3690 C   0  0  0  0  0  0  0  0  0  0  0  0
  -18.0243  -22.1073   17.8195 C   0  0  0  0  0  0  0  0  0  0  0  0
  -17.0203  -22.3930   18.7565 C   0  0  0  0  0  0  0  0  0  0  0  0
  -15.4926  -22.6580   17.0067 C   0  0  0  0  0  0  0  0  0  0  0  0
  -16.4486  -22.3830   16.0602 C   0  0  0  0  0  0  0  0  0  0  0  0
  -17.7133  -22.1087   16.4804 C   0  0  0  0  0  0  0  0  0  0  0  0
  -19.3704  -21.8151   18.2649 C   0  0  0  0  0  0  0  0  0  0  0  0
  -21.9148  -21.2820   19.1196 C   0  0  0  0  0  0  0  0  0  0  0  0
  -21.3114  -20.4130   18.2413 C   0  0  0  0  0  0  0  0  0  0  0  0
  -20.0301  -20.6795   17.8095 C   0  0  0  0  0  0  0  0  0  0  0  0
  -21.2530  -22.4100   19.5688 C   0  0  0  0  0  0  0  0  0  0  0  0
  -19.9808  -22.6863   19.1480 C   0  0  0  0  0  0  0  0  0  0  0  0
  -17.3251  -22.3917   20.0693 F   0  0  0  0  0  0  0  0  0  0  0  0
  -13.5484  -23.4448   18.7334 O   0  0  0  0  0  0  0  0  0  0  0  0
  -14.5910  -22.8249   20.6445 N   0  0  0  0  0  0  0  0  0  0  0  0
  -13.3779  -23.0785   21.3529 N   0  0  0  0  0  0  0  0  0  0  0  0
  -13.6663  -24.1473   22.6654 S   0  0  1  0  0  6  0  0  0  0  0  0
  -12.5684  -24.1589   23.6579 O   0  0  0  0  0  0  0  0  0  0  0  0
  -14.9100  -23.6556   23.3655 O   0  0  0  0  0  0  0  0  0  0  0  0
  -13.9889  -25.7490   22.0461 C   0  0  0  0  0  0  0  0  0  0  0  0
  -12.9720  -26.7020   21.9674 C   0  0  0  0  0  0  0  0  0  0  0  0
  -13.2099  -27.9593   21.4839 C   0  0  0  0  0  0  0  0  0  0  0  0
  -14.4802  -28.3082   21.0603 C   0  0  0  0  0  0  0  0  0  0  0  0
  -15.5023  -27.3947   21.1243 C   0  0  0  0  0  0  0  0  0  0  0  0
  -15.2241  -26.1365   21.6178 C   0  0  0  0  0  0  0  0  0  0  0  0
  2  1  1  0
  1 15  2  0
  1 16  1  0
  4  2  2  0
  2  5  1  0
  3  4  1  0
  3  7  2  0
  8  3  1  0
  4 14  1  0
  6  5  2  0
  7  6  1  0
 11  8  2  0
  8 13  1  0
 10  9  2  0
  9 12  1  0
 10 11  1  0
 12 13  2  0
 16 17  1  0
 18 17  1  6
 18 19  2  0
 18 20  2  0
 18 21  1  0
 21 22  2  0
 21 26  1  0
 22 23  1  0
 23 24  2  0
 24 25  1  0
 25 26  2  0
M  END
$$$$
