
     RDKit          3D

 26 28  0  0  0  0  0  0  0  0999 V2000
  -20.4789  -29.5767   11.5319 C   0  0  0  0  0  0  0  0  0  0  0  0
  -19.6649  -28.3801   11.5612 C   0  0  0  0  0  0  0  0  0  0  0  0
  -17.6182  -27.1088   11.5280 C   0  0  0  0  0  0  0  0  0  0  0  0
  -18.3079  -28.3297   11.4905 C   0  0  0  0  0  0  0  0  0  0  0  0
  -20.3291  -27.1689   11.6717 C   0  0  0  0  0  0  0  0  0  0  0  0
  -19.6891  -25.9547   11.7115 C   0  0  0  0  0  0  0  0  0  0  0  0
  -18.3305  -25.9382   11.6386 C   0  0  0  0  0  0  0  0  0  0  0  0
  -16.1728  -27.0894   11.4505 C   0  0  0  0  0  0  0  0  0  0  0  0
  -13.4418  -27.0435   11.2831 C   0  0  0  0  0  0  0  0  0  0  0  0
  -14.0310  -27.5431   12.4206 C   0  0  0  0  0  0  0  0  0  0  0  0
  -15.4062  -27.5672   12.5070 C   0  0  0  0  0  0  0  0  0  0  0  0
  -14.2102  -26.5697   10.2357 C   0  0  0  0  0  0  0  0  0  0  0  0
  -15.5762  -26.5879   10.3086 C   0  0  0  0  0  0  0  0  0  0  0  0
  -17.6098  -29.4773   11.3821 F   0  0  0  0  0  0  0  0  0  0  0  0
  -21.6534  -29.5222   11.0075 O   0  0  0  0  0  0  0  0  0  0  0  0
  -20.1309  -30.8506   12.0278 N   0  0  0  0  0  0  0  0  0  0  0  0
  -21.0549  -31.9337   11.9245 N   0  0  0  0  0  0  0  0  0  0  0  0
  -20.3815  -33.3588   12.6054 S   0  0  1  0  0  6  0  0  0  0  0  0
  -21.1515  -34.5797   12.2782 O   0  0  0  0  0  0  0  0  0  0  0  0
  -19.0015  -33.5168   12.0141 O   0  0  0  0  0  0  0  0  0  0  0  0
  -20.2120  -33.1501   14.3319 C   0  0  0  0  0  0  0  0  0  0  0  0
  -21.2945  -33.3651   15.1864 C   0  0  0  0  0  0  0  0  0  0  0  0
  -21.1765  -33.2046   16.5397 C   0  0  0  0  0  0  0  0  0  0  0  0
  -19.9649  -32.8213   17.0875 C   0  0  0  0  0  0  0  0  0  0  0  0
  -18.8810  -32.6019   16.2751 C   0  0  0  0  0  0  0  0  0  0  0  0
  -19.0382  -32.7738   14.9151 C   0  0  0  0  0  0  0  0  0  0  0  0
  2  1  1  0
  1 15  2  0
  1 16  1  0
  4  2  2  0
  2  5  1  0
  3  4  1  0
  3  7  2  0
  8  3  1  0
  4 14  1  0
  6  5  2  0
  7  6  1  0
 11  8  2  0
  8 13  1  0
 10  9  2  0
  9 12  1  0
 10 11  1  0
 12 13  2  0
 16 17  1  0
 18 17  1  6
 18 19  2  0
 18 20  2  0
 18 21  1  0
 21 22  2  0
 21 26  1  0
 22 23  1  0
 23 24  2  0
 24 25  1  0
 25 26  2  0
M  END
$$$$
