
     RDKit          3D

 26 28  0  0  0  0  0  0  0  0999 V2000
  -15.0306  -22.3771   19.5690 C   0  0  0  0  0  0  0  0  0  0  0  0
  -15.9343  -22.0083   18.5052 C   0  0  0  0  0  0  0  0  0  0  0  0
  -18.0256  -21.1302   17.5940 C   0  0  0  0  0  0  0  0  0  0  0  0
  -17.1812  -21.4593   18.6613 C   0  0  0  0  0  0  0  0  0  0  0  0
  -15.4786  -22.2537   17.2045 C   0  0  0  0  0  0  0  0  0  0  0  0
  -16.2847  -21.9407   16.1480 C   0  0  0  0  0  0  0  0  0  0  0  0
  -17.5423  -21.3863   16.3318 C   0  0  0  0  0  0  0  0  0  0  0  0
  -19.3419  -20.5489   17.8150 C   0  0  0  0  0  0  0  0  0  0  0  0
  -21.8804  -19.4222   18.2464 C   0  0  0  0  0  0  0  0  0  0  0  0
  -20.7830  -18.9788   18.9542 C   0  0  0  0  0  0  0  0  0  0  0  0
  -19.5244  -19.5381   18.7397 C   0  0  0  0  0  0  0  0  0  0  0  0
  -21.7080  -20.4322   17.3199 C   0  0  0  0  0  0  0  0  0  0  0  0
  -20.4533  -20.9747   17.1205 C   0  0  0  0  0  0  0  0  0  0  0  0
  -17.6642  -21.1944   19.8849 F   0  0  0  0  0  0  0  0  0  0  0  0
  -13.7815  -22.5105   19.3008 O   0  0  0  0  0  0  0  0  0  0  0  0
  -15.4299  -22.6040   20.8946 N   0  0  0  0  0  0  0  0  0  0  0  0
  -14.5103  -22.8411   21.9343 N   0  0  0  0  0  0  0  0  0  0  0  0
  -14.2948  -24.5159   22.2219 S   0  0  1  0  0  6  0  0  0  0  0  0
  -14.2010  -25.3084   20.9608 O   0  0  0  0  0  0  0  0  0  0  0  0
  -13.1424  -24.7795   23.1460 O   0  0  0  0  0  0  0  0  0  0  0  0
  -15.7410  -25.0839   23.0682 C   0  0  0  0  0  0  0  0  0  0  0  0
  -16.7212  -25.7962   22.4166 C   0  0  0  0  0  0  0  0  0  0  0  0
  -17.8513  -26.2413   23.0730 C   0  0  0  0  0  0  0  0  0  0  0  0
  -18.0312  -25.9813   24.4151 C   0  0  0  0  0  0  0  0  0  0  0  0
  -17.0593  -25.2718   25.0728 C   0  0  0  0  0  0  0  0  0  0  0  0
  -15.9294  -24.8263   24.4185 C   0  0  0  0  0  0  0  0  0  0  0  0
  2  1  1  0
  1 15  2  0
  1 16  1  0
  4  2  2  0
  2  5  1  0
  3  4  1  0
  3  7  2  0
  8  3  1  0
  4 14  1  0
  6  5  2  0
  7  6  1  0
 11  8  2  0
  8 13  1  0
 10  9  2  0
  9 12  1  0
 10 11  1  0
 12 13  2  0
 16 17  1  0
 18 17  1  6
 18 19  2  0
 18 20  2  0
 18 21  1  0
 21 22  2  0
 21 26  1  0
 22 23  1  0
 23 24  2  0
 24 25  1  0
 25 26  2  0
M  END
$$$$
