
     RDKit          3D

 26 28  0  0  0  0  0  0  0  0999 V2000
  -16.7859  -21.8852   19.7658 C   0  0  0  0  0  0  0  0  0  0  0  0
  -17.0530  -21.5640   18.3838 C   0  0  0  0  0  0  0  0  0  0  0  0
  -17.7045  -22.0834   16.0858 C   0  0  0  0  0  0  0  0  0  0  0  0
  -17.4707  -22.4439   17.4184 C   0  0  0  0  0  0  0  0  0  0  0  0
  -16.8489  -20.2286   18.0169 C   0  0  0  0  0  0  0  0  0  0  0  0
  -17.0707  -19.8539   16.7229 C   0  0  0  0  0  0  0  0  0  0  0  0
  -17.4927  -20.7627   15.7645 C   0  0  0  0  0  0  0  0  0  0  0  0
  -18.1474  -23.0580   15.0992 C   0  0  0  0  0  0  0  0  0  0  0  0
  -18.9975  -24.9371   13.1898 C   0  0  0  0  0  0  0  0  0  0  0  0
  -17.9735  -24.0581   12.9062 C   0  0  0  0  0  0  0  0  0  0  0  0
  -17.5525  -23.1264   13.8536 C   0  0  0  0  0  0  0  0  0  0  0  0
  -19.5985  -24.8764   14.4322 C   0  0  0  0  0  0  0  0  0  0  0  0
  -19.1681  -23.9466   15.3588 C   0  0  0  0  0  0  0  0  0  0  0  0
  -17.6909  -23.7336   17.7167 F   0  0  0  0  0  0  0  0  0  0  0  0
  -16.6275  -20.9250   20.6042 O   0  0  0  0  0  0  0  0  0  0  0  0
  -16.6852  -23.1934   20.2621 N   0  0  0  0  0  0  0  0  0  0  0  0
  -16.5506  -23.4761   21.6351 N   0  0  0  0  0  0  0  0  0  0  0  0
  -15.2838  -24.5899   21.9330 S   0  0  1  0  0  6  0  0  0  0  0  0
  -15.2938  -25.1113   23.3314 O   0  0  0  0  0  0  0  0  0  0  0  0
  -15.2594  -25.6923   20.9154 O   0  0  0  0  0  0  0  0  0  0  0  0
  -13.7637  -23.7065   21.7348 C   0  0  0  0  0  0  0  0  0  0  0  0
  -13.0785  -23.7149   20.5418 C   0  0  0  0  0  0  0  0  0  0  0  0
  -11.8921  -23.0272   20.3827 C   0  0  0  0  0  0  0  0  0  0  0  0
  -11.3546  -22.3046   21.4268 C   0  0  0  0  0  0  0  0  0  0  0  0
  -12.0307  -22.2905   22.6198 C   0  0  0  0  0  0  0  0  0  0  0  0
  -13.2165  -22.9771   22.7806 C   0  0  0  0  0  0  0  0  0  0  0  0
  2  1  1  0
  1 15  2  0
  1 16  1  0
  4  2  2  0
  2  5  1  0
  3  4  1  0
  3  7  2  0
  8  3  1  0
  4 14  1  0
  6  5  2  0
  7  6  1  0
 11  8  2  0
  8 13  1  0
 10  9  2  0
  9 12  1  0
 10 11  1  0
 12 13  2  0
 16 17  1  0
 18 17  1  6
 18 19  2  0
 18 20  2  0
 18 21  1  0
 21 22  2  0
 21 26  1  0
 22 23  1  0
 23 24  2  0
 24 25  1  0
 25 26  2  0
M  END
$$$$
