
     RDKit          3D

 26 28  0  0  0  0  0  0  0  0999 V2000
  -17.5775  -22.5622   21.8732 C   0  0  0  0  0  0  0  0  0  0  0  0
  -18.6401  -21.5967   21.6895 C   0  0  0  0  0  0  0  0  0  0  0  0
  -20.0247  -20.0545   20.4605 C   0  0  0  0  0  0  0  0  0  0  0  0
  -18.9709  -20.9780   20.5247 C   0  0  0  0  0  0  0  0  0  0  0  0
  -19.3940  -21.2696   22.8054 C   0  0  0  0  0  0  0  0  0  0  0  0
  -20.4321  -20.3712   22.7816 C   0  0  0  0  0  0  0  0  0  0  0  0
  -20.7381  -19.7691   21.6004 C   0  0  0  0  0  0  0  0  0  0  0  0
  -20.3517  -19.4130   19.2046 C   0  0  0  0  0  0  0  0  0  0  0  0
  -20.9473  -18.1970   16.8265 C   0  0  0  0  0  0  0  0  0  0  0  0
  -21.9748  -18.6685   17.6092 C   0  0  0  0  0  0  0  0  0  0  0  0
  -21.6772  -19.2812   18.8072 C   0  0  0  0  0  0  0  0  0  0  0  0
  -19.6308  -18.3314   17.2276 C   0  0  0  0  0  0  0  0  0  0  0  0
  -19.3216  -18.9375   18.4145 C   0  0  0  0  0  0  0  0  0  0  0  0
  -18.2715  -21.2578   19.4072 F   0  0  0  0  0  0  0  0  0  0  0  0
  -17.0205  -22.6679   23.0291 O   0  0  0  0  0  0  0  0  0  0  0  0
  -17.0531  -23.4402   20.9016 N   0  0  0  0  0  0  0  0  0  0  0  0
  -16.0812  -24.4176   21.2729 N   0  0  0  0  0  0  0  0  0  0  0  0
  -15.4042  -25.1467   19.8736 S   0  0  1  0  0  6  0  0  0  0  0  0
  -14.7848  -26.4630   20.1455 O   0  0  0  0  0  0  0  0  0  0  0  0
  -16.5386  -25.3673   18.9023 O   0  0  0  0  0  0  0  0  0  0  0  0
  -14.2673  -24.0417   19.1390 C   0  0  0  0  0  0  0  0  0  0  0  0
  -12.9797  -23.8935   19.6569 C   0  0  0  0  0  0  0  0  0  0  0  0
  -12.0797  -23.0317   19.0927 C   0  0  0  0  0  0  0  0  0  0  0  0
  -12.4391  -22.2844   17.9849 C   0  0  0  0  0  0  0  0  0  0  0  0
  -13.6973  -22.4064   17.4510 C   0  0  0  0  0  0  0  0  0  0  0  0
  -14.5777  -23.2858   18.0473 C   0  0  0  0  0  0  0  0  0  0  0  0
  2  1  1  0
  1 15  2  0
  1 16  1  0
  4  2  2  0
  2  5  1  0
  3  4  1  0
  3  7  2  0
  8  3  1  0
  4 14  1  0
  6  5  2  0
  7  6  1  0
 11  8  2  0
  8 13  1  0
 10  9  2  0
  9 12  1  0
 10 11  1  0
 12 13  2  0
 16 17  1  0
 18 17  1  1
 18 19  2  0
 18 20  2  0
 18 21  1  0
 21 22  2  0
 21 26  1  0
 22 23  1  0
 23 24  2  0
 24 25  1  0
 25 26  2  0
M  END
$$$$
