
     RDKit          3D

 26 28  0  0  0  0  0  0  0  0999 V2000
  -20.7640  -29.5376   10.4013 C   0  0  0  0  0  0  0  0  0  0  0  0
  -20.1546  -28.3598   10.9720 C   0  0  0  0  0  0  0  0  0  0  0  0
  -18.2686  -26.9863   11.7009 C   0  0  0  0  0  0  0  0  0  0  0  0
  -18.8095  -28.1440   11.1286 C   0  0  0  0  0  0  0  0  0  0  0  0
  -21.0384  -27.3659   11.4088 C   0  0  0  0  0  0  0  0  0  0  0  0
  -20.5338  -26.2282   11.9701 C   0  0  0  0  0  0  0  0  0  0  0  0
  -19.1690  -26.0335   12.1177 C   0  0  0  0  0  0  0  0  0  0  0  0
  -16.8309  -26.8071   11.8441 C   0  0  0  0  0  0  0  0  0  0  0  0
  -14.0550  -26.4677   12.1234 C   0  0  0  0  0  0  0  0  0  0  0  0
  -14.6672  -27.6336   12.5329 C   0  0  0  0  0  0  0  0  0  0  0  0
  -16.0439  -27.8012   12.3941 C   0  0  0  0  0  0  0  0  0  0  0  0
  -14.8333  -25.4683   11.5725 C   0  0  0  0  0  0  0  0  0  0  0  0
  -16.1963  -25.6518   11.4426 C   0  0  0  0  0  0  0  0  0  0  0  0
  -17.9172  -29.0589   10.7191 F   0  0  0  0  0  0  0  0  0  0  0  0
  -21.9999  -29.7792   10.6552 O   0  0  0  0  0  0  0  0  0  0  0  0
  -20.0882  -30.4499    9.5772 N   0  0  0  0  0  0  0  0  0  0  0  0
  -20.6934  -31.6234    9.0879 N   0  0  0  0  0  0  0  0  0  0  0  0
  -19.5394  -32.7095    8.4376 S   0  0  1  0  0  6  0  0  0  0  0  0
  -20.1690  -33.8993    7.7931 O   0  0  0  0  0  0  0  0  0  0  0  0
  -18.5713  -32.0147    7.5257 O   0  0  0  0  0  0  0  0  0  0  0  0
  -18.5825  -33.3186    9.7954 C   0  0  0  0  0  0  0  0  0  0  0  0
  -17.2623  -32.9674    9.9584 C   0  0  0  0  0  0  0  0  0  0  0  0
  -16.5118  -33.4403   11.0162 C   0  0  0  0  0  0  0  0  0  0  0  0
  -17.0708  -34.2874   11.9496 C   0  0  0  0  0  0  0  0  0  0  0  0
  -18.3862  -34.6429   11.7952 C   0  0  0  0  0  0  0  0  0  0  0  0
  -19.1377  -34.1714   10.7387 C   0  0  0  0  0  0  0  0  0  0  0  0
  2  1  1  0
  1 15  2  0
  1 16  1  0
  4  2  2  0
  2  5  1  0
  3  4  1  0
  3  7  2  0
  8  3  1  0
  4 14  1  0
  6  5  2  0
  7  6  1  0
 11  8  2  0
  8 13  1  0
 10  9  2  0
  9 12  1  0
 10 11  1  0
 12 13  2  0
 16 17  1  0
 18 17  1  1
 18 19  2  0
 18 20  2  0
 18 21  1  0
 21 22  2  0
 21 26  1  0
 22 23  1  0
 23 24  2  0
 24 25  1  0
 25 26  2  0
M  END
$$$$
