
     RDKit          3D

 26 28  0  0  0  0  0  0  0  0999 V2000
  -14.7016  -23.3846   19.4127 C   0  0  0  0  0  0  0  0  0  0  0  0
  -15.5242  -22.6303   18.4969 C   0  0  0  0  0  0  0  0  0  0  0  0
  -17.5693  -21.4876   17.7996 C   0  0  0  0  0  0  0  0  0  0  0  0
  -16.8081  -22.2077   18.7282 C   0  0  0  0  0  0  0  0  0  0  0  0
  -14.9402  -22.3241   17.2621 C   0  0  0  0  0  0  0  0  0  0  0  0
  -15.6635  -21.6225   16.3409 C   0  0  0  0  0  0  0  0  0  0  0  0
  -16.9608  -21.2064   16.5984 C   0  0  0  0  0  0  0  0  0  0  0  0
  -18.9300  -21.0625   18.0955 C   0  0  0  0  0  0  0  0  0  0  0  0
  -21.5544  -20.2390   18.6729 C   0  0  0  0  0  0  0  0  0  0  0  0
  -20.5186  -19.9483   19.5357 C   0  0  0  0  0  0  0  0  0  0  0  0
  -19.2174  -20.3571   19.2487 C   0  0  0  0  0  0  0  0  0  0  0  0
  -21.2771  -20.9437   17.5176 C   0  0  0  0  0  0  0  0  0  0  0  0
  -19.9814  -21.3408   17.2494 C   0  0  0  0  0  0  0  0  0  0  0  0
  -17.4134  -22.4654   19.8978 F   0  0  0  0  0  0  0  0  0  0  0  0
  -13.8309  -24.1991   18.9345 O   0  0  0  0  0  0  0  0  0  0  0  0
  -14.7904  -23.2879   20.8094 N   0  0  0  0  0  0  0  0  0  0  0  0
  -13.9381  -23.9996   21.6753 N   0  0  0  0  0  0  0  0  0  0  0  0
  -14.7512  -25.2981   22.4414 S   0  0  1  0  0  6  0  0  0  0  0  0
  -15.4150  -26.2148   21.4686 O   0  0  0  0  0  0  0  0  0  0  0  0
  -13.8550  -26.0329   23.3945 O   0  0  0  0  0  0  0  0  0  0  0  0
  -16.0389  -24.5902   23.4269 C   0  0  0  0  0  0  0  0  0  0  0  0
  -15.9516  -24.5468   24.7992 C   0  0  0  0  0  0  0  0  0  0  0  0
  -16.9539  -23.9955   25.5721 C   0  0  0  0  0  0  0  0  0  0  0  0
  -18.0833  -23.4670   24.9835 C   0  0  0  0  0  0  0  0  0  0  0  0
  -18.1790  -23.5059   23.6161 C   0  0  0  0  0  0  0  0  0  0  0  0
  -17.1784  -24.0564   22.8421 C   0  0  0  0  0  0  0  0  0  0  0  0
  2  1  1  0
  1 15  2  0
  1 16  1  0
  4  2  2  0
  2  5  1  0
  3  4  1  0
  3  7  2  0
  8  3  1  0
  4 14  1  0
  6  5  2  0
  7  6  1  0
 11  8  2  0
  8 13  1  0
 10  9  2  0
  9 12  1  0
 10 11  1  0
 12 13  2  0
 16 17  1  0
 18 17  1  6
 18 19  2  0
 18 20  2  0
 18 21  1  0
 21 22  2  0
 21 26  1  0
 22 23  1  0
 23 24  2  0
 24 25  1  0
 25 26  2  0
M  END
$$$$
