
     RDKit          3D

 26 28  0  0  0  0  0  0  0  0999 V2000
  -13.0942  -23.1025   19.4679 C   0  0  0  0  0  0  0  0  0  0  0  0
  -14.5232  -23.1536   19.6922 C   0  0  0  0  0  0  0  0  0  0  0  0
  -16.8409  -22.6744   19.2397 C   0  0  0  0  0  0  0  0  0  0  0  0
  -15.4781  -22.5585   18.9286 C   0  0  0  0  0  0  0  0  0  0  0  0
  -14.9633  -23.8776   20.7889 C   0  0  0  0  0  0  0  0  0  0  0  0
  -16.2876  -24.0135   21.1251 C   0  0  0  0  0  0  0  0  0  0  0  0
  -17.2187  -23.4058   20.3407 C   0  0  0  0  0  0  0  0  0  0  0  0
  -17.8328  -22.0284   18.4063 C   0  0  0  0  0  0  0  0  0  0  0  0
  -19.6966  -20.8147   16.8121 C   0  0  0  0  0  0  0  0  0  0  0  0
  -19.8268  -20.7224   18.1778 C   0  0  0  0  0  0  0  0  0  0  0  0
  -18.8893  -21.3328   18.9825 C   0  0  0  0  0  0  0  0  0  0  0  0
  -18.6432  -21.5082   16.2452 C   0  0  0  0  0  0  0  0  0  0  0  0
  -17.7057  -22.1188   17.0326 C   0  0  0  0  0  0  0  0  0  0  0  0
  -15.1076  -21.8415   17.8493 F   0  0  0  0  0  0  0  0  0  0  0  0
  -12.3598  -24.0743   19.8849 O   0  0  0  0  0  0  0  0  0  0  0  0
  -12.3741  -22.0761   18.8214 N   0  0  0  0  0  0  0  0  0  0  0  0
  -10.9668  -22.2078   18.6221 N   0  0  0  0  0  0  0  0  0  0  0  0
  -10.1190  -21.0655   19.5835 S   0  0  1  0  0  6  0  0  0  0  0  0
   -8.6636  -21.0462   19.3158 O   0  0  0  0  0  0  0  0  0  0  0  0
  -10.6667  -19.7037   19.2305 O   0  0  0  0  0  0  0  0  0  0  0  0
  -10.4575  -21.3662   21.2711 C   0  0  0  0  0  0  0  0  0  0  0  0
  -11.3027  -20.5205   21.9913 C   0  0  0  0  0  0  0  0  0  0  0  0
  -11.5758  -20.7433   23.3130 C   0  0  0  0  0  0  0  0  0  0  0  0
  -11.0095  -21.8256   23.9631 C   0  0  0  0  0  0  0  0  0  0  0  0
  -10.1740  -22.6764   23.2840 C   0  0  0  0  0  0  0  0  0  0  0  0
   -9.9221  -22.4195   21.9519 C   0  0  0  0  0  0  0  0  0  0  0  0
  2  1  1  0
  1 15  2  0
  1 16  1  0
  4  2  2  0
  2  5  1  0
  3  4  1  0
  3  7  2  0
  8  3  1  0
  4 14  1  0
  6  5  2  0
  7  6  1  0
 11  8  2  0
  8 13  1  0
 10  9  2  0
  9 12  1  0
 10 11  1  0
 12 13  2  0
 16 17  1  0
 18 17  1  6
 18 19  2  0
 18 20  2  0
 18 21  1  0
 21 22  2  0
 21 26  1  0
 22 23  1  0
 23 24  2  0
 24 25  1  0
 25 26  2  0
M  END
$$$$
