
     RDKit          3D

 26 28  0  0  0  0  0  0  0  0999 V2000
  -16.5933  -22.0044   19.8353 C   0  0  0  0  0  0  0  0  0  0  0  0
  -16.3947  -22.0982   18.4046 C   0  0  0  0  0  0  0  0  0  0  0  0
  -15.8920  -23.1959   16.3193 C   0  0  0  0  0  0  0  0  0  0  0  0
  -16.0598  -23.2192   17.7118 C   0  0  0  0  0  0  0  0  0  0  0  0
  -16.5612  -20.9361   17.6679 C   0  0  0  0  0  0  0  0  0  0  0  0
  -16.4057  -20.8743   16.3051 C   0  0  0  0  0  0  0  0  0  0  0  0
  -16.0703  -22.0135   15.6410 C   0  0  0  0  0  0  0  0  0  0  0  0
  -15.5352  -24.4071   15.6112 C   0  0  0  0  0  0  0  0  0  0  0  0
  -14.8455  -26.7017   14.2892 C   0  0  0  0  0  0  0  0  0  0  0  0
  -15.8061  -25.8824   13.7446 C   0  0  0  0  0  0  0  0  0  0  0  0
  -16.1550  -24.7263   14.4087 C   0  0  0  0  0  0  0  0  0  0  0  0
  -14.2328  -26.3784   15.4859 C   0  0  0  0  0  0  0  0  0  0  0  0
  -14.5698  -25.2338   16.1553 C   0  0  0  0  0  0  0  0  0  0  0  0
  -15.8850  -24.3783   18.3768 F   0  0  0  0  0  0  0  0  0  0  0  0
  -16.4689  -20.8595   20.4110 O   0  0  0  0  0  0  0  0  0  0  0  0
  -16.9203  -23.0565   20.7161 N   0  0  0  0  0  0  0  0  0  0  0  0
  -16.8884  -22.8424   22.1271 N   0  0  0  0  0  0  0  0  0  0  0  0
  -17.4233  -24.2478   22.9557 S   0  0  1  0  0  6  0  0  0  0  0  0
  -16.8148  -25.4943   22.4394 O   0  0  0  0  0  0  0  0  0  0  0  0
  -16.9991  -24.0949   24.3963 O   0  0  0  0  0  0  0  0  0  0  0  0
  -19.1686  -24.3177   22.9078 C   0  0  0  0  0  0  0  0  0  0  0  0
  -19.9381  -23.2320   23.3291 C   0  0  0  0  0  0  0  0  0  0  0  0
  -21.3050  -23.2730   23.2980 C   0  0  0  0  0  0  0  0  0  0  0  0
  -21.9525  -24.4077   22.8420 C   0  0  0  0  0  0  0  0  0  0  0  0
  -21.2254  -25.4926   22.4206 C   0  0  0  0  0  0  0  0  0  0  0  0
  -19.8486  -25.4142   22.4666 C   0  0  0  0  0  0  0  0  0  0  0  0
  2  1  1  0
  1 15  2  0
  1 16  1  0
  4  2  2  0
  2  5  1  0
  3  4  1  0
  3  7  2  0
  8  3  1  0
  4 14  1  0
  6  5  2  0
  7  6  1  0
 11  8  2  0
  8 13  1  0
 10  9  2  0
  9 12  1  0
 10 11  1  0
 12 13  2  0
 16 17  1  0
 18 17  1  6
 18 19  2  0
 18 20  2  0
 18 21  1  0
 21 22  2  0
 21 26  1  0
 22 23  1  0
 23 24  2  0
 24 25  1  0
 25 26  2  0
M  END
$$$$
