
     RDKit          3D

 26 28  0  0  0  0  0  0  0  0999 V2000
  -18.0243  -29.3163    8.7438 C   0  0  0  0  0  0  0  0  0  0  0  0
  -19.4152  -29.5554    9.0480 C   0  0  0  0  0  0  0  0  0  0  0  0
  -21.4032  -29.4948   10.4689 C   0  0  0  0  0  0  0  0  0  0  0  0
  -20.0515  -29.2295   10.2182 C   0  0  0  0  0  0  0  0  0  0  0  0
  -20.1591  -30.1894    8.0459 C   0  0  0  0  0  0  0  0  0  0  0  0
  -21.4791  -30.4581    8.2678 C   0  0  0  0  0  0  0  0  0  0  0  0
  -22.1001  -30.1188    9.4602 C   0  0  0  0  0  0  0  0  0  0  0  0
  -22.0308  -29.1277   11.7302 C   0  0  0  0  0  0  0  0  0  0  0  0
  -23.2402  -28.4122   14.1643 C   0  0  0  0  0  0  0  0  0  0  0  0
  -22.5833  -27.4708   13.4002 C   0  0  0  0  0  0  0  0  0  0  0  0
  -21.9837  -27.8264   12.1932 C   0  0  0  0  0  0  0  0  0  0  0  0
  -23.2927  -29.7157   13.7098 C   0  0  0  0  0  0  0  0  0  0  0  0
  -22.6928  -30.0500   12.5112 C   0  0  0  0  0  0  0  0  0  0  0  0
  -19.3891  -28.6123   11.2087 F   0  0  0  0  0  0  0  0  0  0  0  0
  -17.3650  -30.2205    8.1129 O   0  0  0  0  0  0  0  0  0  0  0  0
  -17.3335  -28.1473    9.0964 N   0  0  0  0  0  0  0  0  0  0  0  0
  -15.9782  -27.9404    8.7750 N   0  0  0  0  0  0  0  0  0  0  0  0
  -14.9371  -28.5414    9.9952 S   0  0  1  0  0  6  0  0  0  0  0  0
  -15.5225  -29.7004   10.7309 O   0  0  0  0  0  0  0  0  0  0  0  0
  -13.5667  -28.8400    9.4619 O   0  0  0  0  0  0  0  0  0  0  0  0
  -14.7295  -27.2443   11.1805 C   0  0  0  0  0  0  0  0  0  0  0  0
  -14.3409  -27.5085   12.4736 C   0  0  0  0  0  0  0  0  0  0  0  0
  -14.1777  -26.4996   13.4017 C   0  0  0  0  0  0  0  0  0  0  0  0
  -14.4023  -25.1842   13.0548 C   0  0  0  0  0  0  0  0  0  0  0  0
  -14.7900  -24.9114   11.7680 C   0  0  0  0  0  0  0  0  0  0  0  0
  -14.9536  -25.9183   10.8392 C   0  0  0  0  0  0  0  0  0  0  0  0
  2  1  1  0
  1 15  2  0
  1 16  1  0
  4  2  2  0
  2  5  1  0
  3  4  1  0
  3  7  2  0
  8  3  1  0
  4 14  1  0
  6  5  2  0
  7  6  1  0
 11  8  2  0
  8 13  1  0
 10  9  2  0
  9 12  1  0
 10 11  1  0
 12 13  2  0
 16 17  1  0
 18 17  1  6
 18 19  2  0
 18 20  2  0
 18 21  1  0
 21 22  2  0
 21 26  1  0
 22 23  1  0
 23 24  2  0
 24 25  1  0
 25 26  2  0
M  END
$$$$
