
     RDKit          3D

 26 28  0  0  0  0  0  0  0  0999 V2000
  -16.7105  -24.3496   22.4436 C   0  0  0  0  0  0  0  0  0  0  0  0
  -17.8265  -24.9192   23.1683 C   0  0  0  0  0  0  0  0  0  0  0  0
  -20.1437  -25.4103   23.6105 C   0  0  0  0  0  0  0  0  0  0  0  0
  -19.1399  -24.8154   22.8320 C   0  0  0  0  0  0  0  0  0  0  0  0
  -17.5313  -25.6396   24.3148 C   0  0  0  0  0  0  0  0  0  0  0  0
  -18.4856  -26.2356   25.1018 C   0  0  0  0  0  0  0  0  0  0  0  0
  -19.7911  -26.1134   24.7381 C   0  0  0  0  0  0  0  0  0  0  0  0
  -21.5330  -25.2812   23.2250 C   0  0  0  0  0  0  0  0  0  0  0  0
  -24.1616  -25.0600   22.4967 C   0  0  0  0  0  0  0  0  0  0  0  0
  -23.4134  -23.9161   22.6463 C   0  0  0  0  0  0  0  0  0  0  0  0
  -22.0895  -24.0251   23.0130 C   0  0  0  0  0  0  0  0  0  0  0  0
  -23.6019  -26.3065   22.7090 C   0  0  0  0  0  0  0  0  0  0  0  0
  -22.2890  -26.4288   23.0734 C   0  0  0  0  0  0  0  0  0  0  0  0
  -19.4854  -24.1261   21.7267 F   0  0  0  0  0  0  0  0  0  0  0  0
  -15.6691  -23.9675   23.0970 O   0  0  0  0  0  0  0  0  0  0  0  0
  -16.6173  -24.1522   21.0499 N   0  0  0  0  0  0  0  0  0  0  0  0
  -15.4037  -23.6655   20.4773 N   0  0  0  0  0  0  0  0  0  0  0  0
  -15.6412  -22.0970   19.8206 S   0  0  1  0  0  6  0  0  0  0  0  0
  -16.3262  -21.1739   20.7527 O   0  0  0  0  0  0  0  0  0  0  0  0
  -14.2716  -21.5284   19.5384 O   0  0  0  0  0  0  0  0  0  0  0  0
  -16.4974  -22.2296   18.3032 C   0  0  0  0  0  0  0  0  0  0  0  0
  -17.6823  -21.5237   18.0883 C   0  0  0  0  0  0  0  0  0  0  0  0
  -18.3635  -21.6187   16.9059 C   0  0  0  0  0  0  0  0  0  0  0  0
  -17.8801  -22.4274   15.8925 C   0  0  0  0  0  0  0  0  0  0  0  0
  -16.7179  -23.1347   16.0715 C   0  0  0  0  0  0  0  0  0  0  0  0
  -16.0585  -23.0137   17.2775 C   0  0  0  0  0  0  0  0  0  0  0  0
  2  1  1  0
  1 15  2  0
  1 16  1  0
  4  2  2  0
  2  5  1  0
  3  4  1  0
  3  7  2  0
  8  3  1  0
  4 14  1  0
  6  5  2  0
  7  6  1  0
 11  8  2  0
  8 13  1  0
 10  9  2  0
  9 12  1  0
 10 11  1  0
 12 13  2  0
 16 17  1  0
 18 17  1  1
 18 19  2  0
 18 20  2  0
 18 21  1  0
 21 22  2  0
 21 26  1  0
 22 23  1  0
 23 24  2  0
 24 25  1  0
 25 26  2  0
M  END
$$$$
