
     RDKit          3D

 26 28  0  0  0  0  0  0  0  0999 V2000
  -14.8221  -23.8378   19.4371 C   0  0  0  0  0  0  0  0  0  0  0  0
  -15.4586  -22.9525   18.4908 C   0  0  0  0  0  0  0  0  0  0  0  0
  -17.3537  -21.7374   17.5387 C   0  0  0  0  0  0  0  0  0  0  0  0
  -16.7816  -22.5919   18.4889 C   0  0  0  0  0  0  0  0  0  0  0  0
  -14.6318  -22.4368   17.4858 C   0  0  0  0  0  0  0  0  0  0  0  0
  -15.1676  -21.6012   16.5484 C   0  0  0  0  0  0  0  0  0  0  0  0
  -16.5092  -21.2515   16.5676 C   0  0  0  0  0  0  0  0  0  0  0  0
  -18.7659  -21.3861   17.5819 C   0  0  0  0  0  0  0  0  0  0  0  0
  -21.4927  -20.7091   17.6583 C   0  0  0  0  0  0  0  0  0  0  0  0
  -20.8779  -21.0242   16.4648 C   0  0  0  0  0  0  0  0  0  0  0  0
  -19.5256  -21.3599   16.4277 C   0  0  0  0  0  0  0  0  0  0  0  0
  -20.7416  -20.7326   18.8174 C   0  0  0  0  0  0  0  0  0  0  0  0
  -19.4026  -21.0675   18.7618 C   0  0  0  0  0  0  0  0  0  0  0  0
  -17.6172  -23.0493   19.4341 F   0  0  0  0  0  0  0  0  0  0  0  0
  -13.9848  -24.7094   19.0020 O   0  0  0  0  0  0  0  0  0  0  0  0
  -15.0601  -23.8112   20.8194 N   0  0  0  0  0  0  0  0  0  0  0  0
  -14.3357  -24.6044   21.7298 N   0  0  0  0  0  0  0  0  0  0  0  0
  -15.0881  -24.6539   23.2678 S   0  0  1  0  0  6  0  0  0  0  0  0
  -15.1439  -26.0326   23.8365 O   0  0  0  0  0  0  0  0  0  0  0  0
  -14.4748  -23.6703   24.2207 O   0  0  0  0  0  0  0  0  0  0  0  0
  -16.7638  -24.1345   23.0388 C   0  0  0  0  0  0  0  0  0  0  0  0
  -17.7979  -25.0411   23.0008 C   0  0  0  0  0  0  0  0  0  0  0  0
  -19.1069  -24.6403   22.8223 C   0  0  0  0  0  0  0  0  0  0  0  0
  -19.4179  -23.3050   22.6753 C   0  0  0  0  0  0  0  0  0  0  0  0
  -18.3935  -22.3941   22.7119 C   0  0  0  0  0  0  0  0  0  0  0  0
  -17.0848  -22.7928   22.8902 C   0  0  0  0  0  0  0  0  0  0  0  0
  2  1  1  0
  1 15  2  0
  1 16  1  0
  4  2  2  0
  2  5  1  0
  3  4  1  0
  3  7  2  0
  8  3  1  0
  4 14  1  0
  6  5  2  0
  7  6  1  0
 11  8  2  0
  8 13  1  0
 10  9  2  0
  9 12  1  0
 10 11  1  0
 12 13  2  0
 16 17  1  0
 18 17  1  6
 18 19  2  0
 18 20  2  0
 18 21  1  0
 21 22  2  0
 21 26  1  0
 22 23  1  0
 23 24  2  0
 24 25  1  0
 25 26  2  0
M  END
$$$$
