
     RDKit          3D

 26 28  0  0  0  0  0  0  0  0999 V2000
  -17.9579  -23.3365   19.3342 C   0  0  0  0  0  0  0  0  0  0  0  0
  -17.7245  -22.3272   18.3233 C   0  0  0  0  0  0  0  0  0  0  0  0
  -16.5233  -20.5540   17.2193 C   0  0  0  0  0  0  0  0  0  0  0  0
  -16.6479  -21.5001   18.2473 C   0  0  0  0  0  0  0  0  0  0  0  0
  -18.6885  -22.1884   17.3373 C   0  0  0  0  0  0  0  0  0  0  0  0
  -18.6015  -21.2746   16.3161 C   0  0  0  0  0  0  0  0  0  0  0  0
  -17.5116  -20.4615   16.2682 C   0  0  0  0  0  0  0  0  0  0  0  0
  -15.3644  -19.6881   17.1668 C   0  0  0  0  0  0  0  0  0  0  0  0
  -13.1617  -18.0680   17.0571 C   0  0  0  0  0  0  0  0  0  0  0  0
  -14.3156  -17.5854   17.6282 C   0  0  0  0  0  0  0  0  0  0  0  0
  -15.4261  -18.3995   17.6845 C   0  0  0  0  0  0  0  0  0  0  0  0
  -13.1069  -19.3508   16.5440 C   0  0  0  0  0  0  0  0  0  0  0  0
  -14.2020  -20.1694   16.5935 C   0  0  0  0  0  0  0  0  0  0  0  0
  -15.6791  -21.5909   19.1798 F   0  0  0  0  0  0  0  0  0  0  0  0
  -18.5504  -24.4302   19.0020 O   0  0  0  0  0  0  0  0  0  0  0  0
  -17.6019  -23.2685   20.6975 N   0  0  0  0  0  0  0  0  0  0  0  0
  -17.9646  -24.3271   21.5838 N   0  0  0  0  0  0  0  0  0  0  0  0
  -16.5597  -25.0481   22.2577 S   0  0  1  0  0  6  0  0  0  0  0  0
  -16.4137  -26.4781   21.9051 O   0  0  0  0  0  0  0  0  0  0  0  0
  -15.3723  -24.3127   21.6850 O   0  0  0  0  0  0  0  0  0  0  0  0
  -16.5622  -24.8108   23.9888 C   0  0  0  0  0  0  0  0  0  0  0  0
  -17.6933  -24.3157   24.6397 C   0  0  0  0  0  0  0  0  0  0  0  0
  -17.7091  -24.1240   25.9940 C   0  0  0  0  0  0  0  0  0  0  0  0
  -16.5877  -24.4228   26.7477 C   0  0  0  0  0  0  0  0  0  0  0  0
  -15.4592  -24.9112   26.1387 C   0  0  0  0  0  0  0  0  0  0  0  0
  -15.4808  -25.0913   24.7708 C   0  0  0  0  0  0  0  0  0  0  0  0
  2  1  1  0
  1 15  2  0
  1 16  1  0
  4  2  2  0
  2  5  1  0
  3  4  1  0
  3  7  2  0
  8  3  1  0
  4 14  1  0
  6  5  2  0
  7  6  1  0
 11  8  2  0
  8 13  1  0
 10  9  2  0
  9 12  1  0
 10 11  1  0
 12 13  2  0
 16 17  1  0
 18 17  1  6
 18 19  2  0
 18 20  2  0
 18 21  1  0
 21 22  2  0
 21 26  1  0
 22 23  1  0
 23 24  2  0
 24 25  1  0
 25 26  2  0
M  END
$$$$
