
     RDKit          3D

 26 28  0  0  0  0  0  0  0  0999 V2000
  -15.4835  -23.5545   18.1613 C   0  0  0  0  0  0  0  0  0  0  0  0
  -16.3050  -22.4554   17.7004 C   0  0  0  0  0  0  0  0  0  0  0  0
  -18.1658  -20.9255   17.7523 C   0  0  0  0  0  0  0  0  0  0  0  0
  -17.4455  -22.0038   18.2870 C   0  0  0  0  0  0  0  0  0  0  0  0
  -15.8921  -21.7988   16.5519 C   0  0  0  0  0  0  0  0  0  0  0  0
  -16.5701  -20.7405   15.9991 C   0  0  0  0  0  0  0  0  0  0  0  0
  -17.7080  -20.3124   16.6101 C   0  0  0  0  0  0  0  0  0  0  0  0
  -19.3766  -20.4688   18.4011 C   0  0  0  0  0  0  0  0  0  0  0  0
  -21.6767  -19.6072   19.6077 C   0  0  0  0  0  0  0  0  0  0  0  0
  -20.5338  -19.7282   20.3624 C   0  0  0  0  0  0  0  0  0  0  0  0
  -19.3743  -20.1619   19.7569 C   0  0  0  0  0  0  0  0  0  0  0  0
  -21.6723  -19.9142   18.2594 C   0  0  0  0  0  0  0  0  0  0  0  0
  -20.5282  -20.3457   17.6460 C   0  0  0  0  0  0  0  0  0  0  0  0
  -17.8942  -22.6049   19.4067 F   0  0  0  0  0  0  0  0  0  0  0  0
  -14.4580  -23.9042   17.4659 O   0  0  0  0  0  0  0  0  0  0  0  0
  -15.6746  -24.3240   19.3280 N   0  0  0  0  0  0  0  0  0  0  0  0
  -14.8068  -25.4220   19.6091 N   0  0  0  0  0  0  0  0  0  0  0  0
  -14.8165  -25.7745   21.2895 S   0  0  1  0  0  6  0  0  0  0  0  0
  -16.1721  -25.7419   21.8827 O   0  0  0  0  0  0  0  0  0  0  0  0
  -14.2832  -27.1781   21.4455 O   0  0  0  0  0  0  0  0  0  0  0  0
  -13.7281  -24.6850   22.1148 C   0  0  0  0  0  0  0  0  0  0  0  0
  -13.6840  -24.6407   23.5092 C   0  0  0  0  0  0  0  0  0  0  0  0
  -12.8376  -23.7921   24.1685 C   0  0  0  0  0  0  0  0  0  0  0  0
  -12.0017  -22.9542   23.4515 C   0  0  0  0  0  0  0  0  0  0  0  0
  -12.0204  -22.9730   22.0795 C   0  0  0  0  0  0  0  0  0  0  0  0
  -12.8873  -23.8422   21.4496 C   0  0  0  0  0  0  0  0  0  0  0  0
  2  1  1  0
  1 15  2  0
  1 16  1  0
  4  2  2  0
  2  5  1  0
  3  4  1  0
  3  7  2  0
  8  3  1  0
  4 14  1  0
  6  5  2  0
  7  6  1  0
 11  8  2  0
  8 13  1  0
 10  9  2  0
  9 12  1  0
 10 11  1  0
 12 13  2  0
 16 17  1  0
 18 17  1  6
 18 19  2  0
 18 20  2  0
 18 21  1  0
 21 22  2  0
 21 26  1  0
 22 23  1  0
 23 24  2  0
 24 25  1  0
 25 26  2  0
M  END
$$$$
