
     RDKit          3D

 26 28  0  0  0  0  0  0  0  0999 V2000
  -13.6555  -22.8509   21.1642 C   0  0  0  0  0  0  0  0  0  0  0  0
  -14.9071  -23.1969   20.5247 C   0  0  0  0  0  0  0  0  0  0  0  0
  -16.7242  -22.9449   18.9625 C   0  0  0  0  0  0  0  0  0  0  0  0
  -15.5053  -22.5179   19.5098 C   0  0  0  0  0  0  0  0  0  0  0  0
  -15.5602  -24.3276   20.9890 C   0  0  0  0  0  0  0  0  0  0  0  0
  -16.7535  -24.7762   20.4789 C   0  0  0  0  0  0  0  0  0  0  0  0
  -17.3265  -24.0745   19.4637 C   0  0  0  0  0  0  0  0  0  0  0  0
  -17.3351  -22.1996   17.8823 C   0  0  0  0  0  0  0  0  0  0  0  0
  -18.5108  -20.7965   15.8482 C   0  0  0  0  0  0  0  0  0  0  0  0
  -17.1386  -20.8241   15.9320 C   0  0  0  0  0  0  0  0  0  0  0  0
  -16.5444  -21.5300   16.9556 C   0  0  0  0  0  0  0  0  0  0  0  0
  -19.2916  -21.4647   16.7733 C   0  0  0  0  0  0  0  0  0  0  0  0
  -18.7145  -22.1692   17.7942 C   0  0  0  0  0  0  0  0  0  0  0  0
  -14.9148  -21.4106   19.0186 F   0  0  0  0  0  0  0  0  0  0  0  0
  -13.4531  -23.2150   22.3824 O   0  0  0  0  0  0  0  0  0  0  0  0
  -12.5829  -22.1333   20.5946 N   0  0  0  0  0  0  0  0  0  0  0  0
  -11.3912  -22.8176   20.2082 N   0  0  0  0  0  0  0  0  0  0  0  0
  -10.1305  -22.4990   21.3294 S   0  0  1  0  0  6  0  0  0  0  0  0
  -10.3697  -23.1012   22.6600 O   0  0  0  0  0  0  0  0  0  0  0  0
   -8.8756  -23.1204   20.7655 O   0  0  0  0  0  0  0  0  0  0  0  0
   -9.8792  -20.7735   21.4413 C   0  0  0  0  0  0  0  0  0  0  0  0
  -10.3372  -20.0559   22.5474 C   0  0  0  0  0  0  0  0  0  0  0  0
  -10.1483  -18.7048   22.6479 C   0  0  0  0  0  0  0  0  0  0  0  0
   -9.4912  -18.0216   21.6397 C   0  0  0  0  0  0  0  0  0  0  0  0
   -9.0285  -18.6974   20.5387 C   0  0  0  0  0  0  0  0  0  0  0  0
   -9.2376  -20.0597   20.4726 C   0  0  0  0  0  0  0  0  0  0  0  0
  2  1  1  0
  1 15  2  0
  1 16  1  0
  4  2  2  0
  2  5  1  0
  3  4  1  0
  3  7  2  0
  8  3  1  0
  4 14  1  0
  6  5  2  0
  7  6  1  0
 11  8  2  0
  8 13  1  0
 10  9  2  0
  9 12  1  0
 10 11  1  0
 12 13  2  0
 16 17  1  0
 18 17  1  6
 18 19  2  0
 18 20  2  0
 18 21  1  0
 21 22  2  0
 21 26  1  0
 22 23  1  0
 23 24  2  0
 24 25  1  0
 25 26  2  0
M  END
$$$$
