
     RDKit          3D

 26 28  0  0  0  0  0  0  0  0999 V2000
  -13.8883  -22.1733   18.3688 C   0  0  0  0  0  0  0  0  0  0  0  0
  -15.2545  -22.2232   17.8934 C   0  0  0  0  0  0  0  0  0  0  0  0
  -17.6496  -22.0126   18.0524 C   0  0  0  0  0  0  0  0  0  0  0  0
  -16.3681  -21.9304   18.6167 C   0  0  0  0  0  0  0  0  0  0  0  0
  -15.4494  -22.6054   16.5756 C   0  0  0  0  0  0  0  0  0  0  0  0
  -16.6873  -22.6974   15.9886 C   0  0  0  0  0  0  0  0  0  0  0  0
  -17.7819  -22.3977   16.7393 C   0  0  0  0  0  0  0  0  0  0  0  0
  -18.8151  -21.6941   18.8497 C   0  0  0  0  0  0  0  0  0  0  0  0
  -21.0107  -21.1058   20.3736 C   0  0  0  0  0  0  0  0  0  0  0  0
  -20.8890  -20.5303   19.1307 C   0  0  0  0  0  0  0  0  0  0  0  0
  -19.7841  -20.8252   18.3616 C   0  0  0  0  0  0  0  0  0  0  0  0
  -20.0431  -21.9694   20.8533 C   0  0  0  0  0  0  0  0  0  0  0  0
  -18.9415  -22.2705   20.1000 C   0  0  0  0  0  0  0  0  0  0  0  0
  -16.2383  -21.5530   19.9039 F   0  0  0  0  0  0  0  0  0  0  0  0
  -13.0232  -22.9889   17.8748 O   0  0  0  0  0  0  0  0  0  0  0  0
  -13.3632  -21.3048   19.3485 N   0  0  0  0  0  0  0  0  0  0  0  0
  -11.9511  -21.1323   19.4668 N   0  0  0  0  0  0  0  0  0  0  0  0
  -11.3963  -21.7666   20.9627 S   0  0  1  0  0  6  0  0  0  0  0  0
  -12.4958  -22.1902   21.8584 O   0  0  0  0  0  0  0  0  0  0  0  0
  -10.5721  -22.9898   20.6410 O   0  0  0  0  0  0  0  0  0  0  0  0
  -10.3534  -20.5968   21.7352 C   0  0  0  0  0  0  0  0  0  0  0  0
  -10.8662  -19.6817   22.6561 C   0  0  0  0  0  0  0  0  0  0  0  0
  -10.0617  -18.7598   23.2677 C   0  0  0  0  0  0  0  0  0  0  0  0
   -8.7093  -18.7216   22.9774 C   0  0  0  0  0  0  0  0  0  0  0  0
   -8.1733  -19.6073   22.0766 C   0  0  0  0  0  0  0  0  0  0  0  0
   -9.0159  -20.5226   21.4798 C   0  0  0  0  0  0  0  0  0  0  0  0
  2  1  1  0
  1 15  2  0
  1 16  1  0
  4  2  2  0
  2  5  1  0
  3  4  1  0
  3  7  2  0
  8  3  1  0
  4 14  1  0
  6  5  2  0
  7  6  1  0
 11  8  2  0
  8 13  1  0
 10  9  2  0
  9 12  1  0
 10 11  1  0
 12 13  2  0
 16 17  1  0
 18 17  1  6
 18 19  2  0
 18 20  2  0
 18 21  1  0
 21 22  2  0
 21 26  1  0
 22 23  1  0
 23 24  2  0
 24 25  1  0
 25 26  2  0
M  END
$$$$
