
     RDKit          3D

 26 28  0  0  0  0  0  0  0  0999 V2000
  -19.4988  -13.7987   32.2000 C   0  0  0  0  0  0  0  0  0  0  0  0
  -20.6868  -13.1609   32.7160 C   0  0  0  0  0  0  0  0  0  0  0  0
  -22.6580  -11.7230   32.5690 C   0  0  0  0  0  0  0  0  0  0  0  0
  -21.5221  -12.3276   32.0172 C   0  0  0  0  0  0  0  0  0  0  0  0
  -20.9866  -13.4231   34.0581 C   0  0  0  0  0  0  0  0  0  0  0  0
  -22.0895  -12.8447   34.6176 C   0  0  0  0  0  0  0  0  0  0  0  0
  -22.9188  -12.0050   33.8899 C   0  0  0  0  0  0  0  0  0  0  0  0
  -23.5122  -10.8450   31.7823 C   0  0  0  0  0  0  0  0  0  0  0  0
  -25.1556   -9.1475   30.2600 C   0  0  0  0  0  0  0  0  0  0  0  0
  -23.7889   -9.1563   30.0761 C   0  0  0  0  0  0  0  0  0  0  0  0
  -22.9745   -9.9984   30.8314 C   0  0  0  0  0  0  0  0  0  0  0  0
  -25.7024   -9.9902   31.2083 C   0  0  0  0  0  0  0  0  0  0  0  0
  -24.8800  -10.8180   31.9477 C   0  0  0  0  0  0  0  0  0  0  0  0
  -21.2876  -12.0493   30.7255 F   0  0  0  0  0  0  0  0  0  0  0  0
  -19.1255  -14.9165   32.7112 O   0  0  0  0  0  0  0  0  0  0  0  0
  -18.7126  -13.2727   31.1641 N   0  0  0  0  0  0  0  0  0  0  0  0
  -17.5718  -13.9319   30.6672 N   0  0  0  0  0  0  0  0  0  0  0  0
  -16.1576  -13.4884   31.5258 S   0  0  1  0  0  6  0  0  0  0  0  0
  -15.7034  -12.1026   31.2089 O   0  0  0  0  0  0  0  0  0  0  0  0
  -16.3071  -13.7142   33.0017 O   0  0  0  0  0  0  0  0  0  0  0  0
  -14.8682  -14.5762   30.9921 C   0  0  0  0  0  0  0  0  0  0  0  0
  -13.9233  -15.0550   31.8700 C   0  0  0  0  0  0  0  0  0  0  0  0
  -12.9155  -15.9038   31.4580 C   0  0  0  0  0  0  0  0  0  0  0  0
  -12.8269  -16.3000   30.1402 C   0  0  0  0  0  0  0  0  0  0  0  0
  -13.7646  -15.8277   29.2581 C   0  0  0  0  0  0  0  0  0  0  0  0
  -14.7724  -14.9794   29.6680 C   0  0  0  0  0  0  0  0  0  0  0  0
  2  1  1  0
  1 15  2  0
  1 16  1  0
  4  2  2  0
  2  5  1  0
  3  4  1  0
  3  7  2  0
  8  3  1  0
  4 14  1  0
  6  5  2  0
  7  6  1  0
 11  8  2  0
  8 13  1  0
 10  9  2  0
  9 12  1  0
 10 11  1  0
 12 13  2  0
 16 17  1  0
 18 17  1  6
 18 19  2  0
 18 20  2  0
 18 21  1  0
 21 22  2  0
 21 26  1  0
 22 23  1  0
 23 24  2  0
 24 25  1  0
 25 26  2  0
M  END
$$$$
