
     RDKit          3D

 26 28  0  0  0  0  0  0  0  0999 V2000
  -15.5118  -23.7922   18.3815 C   0  0  0  0  0  0  0  0  0  0  0  0
  -16.2387  -22.6452   17.8910 C   0  0  0  0  0  0  0  0  0  0  0  0
  -17.9859  -20.9383   17.9823 C   0  0  0  0  0  0  0  0  0  0  0  0
  -17.3060  -22.0440   18.5072 C   0  0  0  0  0  0  0  0  0  0  0  0
  -15.8028  -22.1239   16.6671 C   0  0  0  0  0  0  0  0  0  0  0  0
  -16.4505  -21.0458   16.1359 C   0  0  0  0  0  0  0  0  0  0  0  0
  -17.5280  -20.4554   16.7784 C   0  0  0  0  0  0  0  0  0  0  0  0
  -19.1149  -20.3373   18.6778 C   0  0  0  0  0  0  0  0  0  0  0  0
  -21.2905  -19.1767   20.0264 C   0  0  0  0  0  0  0  0  0  0  0  0
  -20.1048  -19.4260   20.6850 C   0  0  0  0  0  0  0  0  0  0  0  0
  -19.0263  -20.0016   20.0155 C   0  0  0  0  0  0  0  0  0  0  0  0
  -21.3887  -19.5088   18.6891 C   0  0  0  0  0  0  0  0  0  0  0  0
  -20.3096  -20.0785   18.0417 C   0  0  0  0  0  0  0  0  0  0  0  0
  -17.7596  -22.4965   19.6864 F   0  0  0  0  0  0  0  0  0  0  0  0
  -14.5012  -24.2165   17.7116 O   0  0  0  0  0  0  0  0  0  0  0  0
  -15.8395  -24.4854   19.5563 N   0  0  0  0  0  0  0  0  0  0  0  0
  -15.1438  -25.6344   19.9788 N   0  0  0  0  0  0  0  0  0  0  0  0
  -15.2462  -25.8512   21.6748 S   0  0  1  0  0  6  0  0  0  0  0  0
  -16.5055  -25.2945   22.2506 O   0  0  0  0  0  0  0  0  0  0  0  0
  -15.0248  -27.2821   22.0687 O   0  0  0  0  0  0  0  0  0  0  0  0
  -13.9145  -24.9339   22.3930 C   0  0  0  0  0  0  0  0  0  0  0  0
  -14.1464  -23.8529   23.2118 C   0  0  0  0  0  0  0  0  0  0  0  0
  -13.1105  -23.1343   23.7742 C   0  0  0  0  0  0  0  0  0  0  0  0
  -11.7996  -23.4839   23.5282 C   0  0  0  0  0  0  0  0  0  0  0  0
  -11.5588  -24.5601   22.7132 C   0  0  0  0  0  0  0  0  0  0  0  0
  -12.5928  -25.2794   22.1503 C   0  0  0  0  0  0  0  0  0  0  0  0
  2  1  1  0
  1 15  2  0
  1 16  1  0
  4  2  2  0
  2  5  1  0
  3  4  1  0
  3  7  2  0
  8  3  1  0
  4 14  1  0
  6  5  2  0
  7  6  1  0
 11  8  2  0
  8 13  1  0
 10  9  2  0
  9 12  1  0
 10 11  1  0
 12 13  2  0
 16 17  1  0
 18 17  1  6
 18 19  2  0
 18 20  2  0
 18 21  1  0
 21 22  2  0
 21 26  1  0
 22 23  1  0
 23 24  2  0
 24 25  1  0
 25 26  2  0
M  END
$$$$
