
     RDKit          3D

 26 28  0  0  0  0  0  0  0  0999 V2000
  -17.6452  -26.0475   22.5184 C   0  0  0  0  0  0  0  0  0  0  0  0
  -17.2841  -26.8329   21.3573 C   0  0  0  0  0  0  0  0  0  0  0  0
  -17.3288  -28.7465   19.8936 C   0  0  0  0  0  0  0  0  0  0  0  0
  -17.7482  -28.0738   21.0508 C   0  0  0  0  0  0  0  0  0  0  0  0
  -16.3794  -26.2690   20.4718 C   0  0  0  0  0  0  0  0  0  0  0  0
  -15.9457  -26.8962   19.3300 C   0  0  0  0  0  0  0  0  0  0  0  0
  -16.4289  -28.1373   19.0515 C   0  0  0  0  0  0  0  0  0  0  0  0
  -17.8419  -30.0669   19.5959 C   0  0  0  0  0  0  0  0  0  0  0  0
  -18.8328  -32.5564   19.0398 C   0  0  0  0  0  0  0  0  0  0  0  0
  -17.4986  -32.3064   18.8205 C   0  0  0  0  0  0  0  0  0  0  0  0
  -16.9975  -31.0534   19.0998 C   0  0  0  0  0  0  0  0  0  0  0  0
  -19.6675  -31.5707   19.5335 C   0  0  0  0  0  0  0  0  0  0  0  0
  -19.1828  -30.3227   19.8149 C   0  0  0  0  0  0  0  0  0  0  0  0
  -18.6302  -28.6709   21.8765 F   0  0  0  0  0  0  0  0  0  0  0  0
  -17.2337  -24.8306   22.6037 O   0  0  0  0  0  0  0  0  0  0  0  0
  -18.4257  -26.4672   23.6159 N   0  0  0  0  0  0  0  0  0  0  0  0
  -18.7587  -25.5418   24.6505 N   0  0  0  0  0  0  0  0  0  0  0  0
  -19.9770  -26.1973   25.6673 S   0  0  1  0  0  6  0  0  0  0  0  0
  -19.7238  -27.6058   26.0447 O   0  0  0  0  0  0  0  0  0  0  0  0
  -19.9773  -25.3776   26.9350 O   0  0  0  0  0  0  0  0  0  0  0  0
  -21.5346  -26.0088   24.8982 C   0  0  0  0  0  0  0  0  0  0  0  0
  -22.1137  -24.7464   24.7592 C   0  0  0  0  0  0  0  0  0  0  0  0
  -23.3327  -24.5840   24.1602 C   0  0  0  0  0  0  0  0  0  0  0  0
  -24.0178  -25.6850   23.6771 C   0  0  0  0  0  0  0  0  0  0  0  0
  -23.4763  -26.9401   23.7980 C   0  0  0  0  0  0  0  0  0  0  0  0
  -22.2449  -27.0645   24.4079 C   0  0  0  0  0  0  0  0  0  0  0  0
  2  1  1  0
  1 15  2  0
  1 16  1  0
  4  2  2  0
  2  5  1  0
  3  4  1  0
  3  7  2  0
  8  3  1  0
  4 14  1  0
  6  5  2  0
  7  6  1  0
 11  8  2  0
  8 13  1  0
 10  9  2  0
  9 12  1  0
 10 11  1  0
 12 13  2  0
 16 17  1  0
 18 17  1  6
 18 19  2  0
 18 20  2  0
 18 21  1  0
 21 22  2  0
 21 26  1  0
 22 23  1  0
 23 24  2  0
 24 25  1  0
 25 26  2  0
M  END
$$$$
