
     RDKit          3D

 26 28  0  0  0  0  0  0  0  0999 V2000
  -17.4997  -27.6906   10.6355 C   0  0  0  0  0  0  0  0  0  0  0  0
  -16.1506  -27.6606   11.1591 C   0  0  0  0  0  0  0  0  0  0  0  0
  -14.1951  -28.5427   12.2564 C   0  0  0  0  0  0  0  0  0  0  0  0
  -15.5095  -28.6823   11.7868 C   0  0  0  0  0  0  0  0  0  0  0  0
  -15.4422  -26.4791   11.0076 C   0  0  0  0  0  0  0  0  0  0  0  0
  -14.1553  -26.3048   11.4537 C   0  0  0  0  0  0  0  0  0  0  0  0
  -13.5415  -27.3465   12.0778 C   0  0  0  0  0  0  0  0  0  0  0  0
  -13.5407  -29.6500   12.9207 C   0  0  0  0  0  0  0  0  0  0  0  0
  -12.2976  -31.7291   14.1937 C   0  0  0  0  0  0  0  0  0  0  0  0
  -12.9080  -31.9587   12.9832 C   0  0  0  0  0  0  0  0  0  0  0  0
  -13.5346  -30.9131   12.3404 C   0  0  0  0  0  0  0  0  0  0  0  0
  -12.3072  -30.4702   14.7656 C   0  0  0  0  0  0  0  0  0  0  0  0
  -12.9256  -29.4236   14.1381 C   0  0  0  0  0  0  0  0  0  0  0  0
  -16.1503  -29.8549   11.9619 F   0  0  0  0  0  0  0  0  0  0  0  0
  -17.8554  -26.8058    9.7705 O   0  0  0  0  0  0  0  0  0  0  0  0
  -18.5178  -28.6082   10.9691 N   0  0  0  0  0  0  0  0  0  0  0  0
  -19.7993  -28.5097   10.3479 N   0  0  0  0  0  0  0  0  0  0  0  0
  -20.8583  -29.7082   10.9724 S   0  0  1  0  0  6  0  0  0  0  0  0
  -20.5000  -31.0796   10.5467 O   0  0  0  0  0  0  0  0  0  0  0  0
  -20.7445  -29.6523   12.4767 O   0  0  0  0  0  0  0  0  0  0  0  0
  -22.5028  -29.3097   10.5370 C   0  0  0  0  0  0  0  0  0  0  0  0
  -23.0660  -29.7955    9.3558 C   0  0  0  0  0  0  0  0  0  0  0  0
  -24.3518  -29.4909    9.0018 C   0  0  0  0  0  0  0  0  0  0  0  0
  -25.1223  -28.6857    9.8219 C   0  0  0  0  0  0  0  0  0  0  0  0
  -24.5988  -28.1917   10.9903 C   0  0  0  0  0  0  0  0  0  0  0  0
  -23.2983  -28.5204   11.3139 C   0  0  0  0  0  0  0  0  0  0  0  0
  2  1  1  0
  1 15  2  0
  1 16  1  0
  4  2  2  0
  2  5  1  0
  3  4  1  0
  3  7  2  0
  8  3  1  0
  4 14  1  0
  6  5  2  0
  7  6  1  0
 11  8  2  0
  8 13  1  0
 10  9  2  0
  9 12  1  0
 10 11  1  0
 12 13  2  0
 16 17  1  0
 18 17  1  6
 18 19  2  0
 18 20  2  0
 18 21  1  0
 21 22  2  0
 21 26  1  0
 22 23  1  0
 23 24  2  0
 24 25  1  0
 25 26  2  0
M  END
$$$$
