
     RDKit          3D

 26 28  0  0  0  0  0  0  0  0999 V2000
  -15.7257  -22.5659   18.8278 C   0  0  0  0  0  0  0  0  0  0  0  0
  -16.8905  -22.1046   18.1103 C   0  0  0  0  0  0  0  0  0  0  0  0
  -19.0332  -20.9481   17.8961 C   0  0  0  0  0  0  0  0  0  0  0  0
  -17.9168  -21.3608   18.6334 C   0  0  0  0  0  0  0  0  0  0  0  0
  -16.9621  -22.4726   16.7615 C   0  0  0  0  0  0  0  0  0  0  0  0
  -18.0413  -22.0814   16.0226 C   0  0  0  0  0  0  0  0  0  0  0  0
  -19.0670  -21.3295   16.5748 C   0  0  0  0  0  0  0  0  0  0  0  0
  -20.0966  -20.1587   18.5007 C   0  0  0  0  0  0  0  0  0  0  0  0
  -22.1503  -18.6312   19.6618 C   0  0  0  0  0  0  0  0  0  0  0  0
  -21.7591  -18.4108   18.3580 C   0  0  0  0  0  0  0  0  0  0  0  0
  -20.7405  -19.1687   17.7828 C   0  0  0  0  0  0  0  0  0  0  0  0
  -21.5126  -19.6186   20.3875 C   0  0  0  0  0  0  0  0  0  0  0  0
  -20.5052  -20.3600   19.8012 C   0  0  0  0  0  0  0  0  0  0  0  0
  -17.8953  -20.9725   19.9178 F   0  0  0  0  0  0  0  0  0  0  0  0
  -14.9860  -23.4685   18.2910 O   0  0  0  0  0  0  0  0  0  0  0  0
  -15.3419  -22.0892   20.0901 N   0  0  0  0  0  0  0  0  0  0  0  0
  -14.1536  -22.4968   20.7263 N   0  0  0  0  0  0  0  0  0  0  0  0
  -14.4705  -23.3517   22.1764 S   0  0  1  0  0  6  0  0  0  0  0  0
  -13.5055  -23.0160   23.2643 O   0  0  0  0  0  0  0  0  0  0  0  0
  -15.8973  -23.1974   22.6144 O   0  0  0  0  0  0  0  0  0  0  0  0
  -14.2507  -25.0707   21.8198 C   0  0  0  0  0  0  0  0  0  0  0  0
  -15.2899  -25.9655   21.9296 C   0  0  0  0  0  0  0  0  0  0  0  0
  -15.1230  -27.3076   21.6525 C   0  0  0  0  0  0  0  0  0  0  0  0
  -13.8961  -27.7942   21.2534 C   0  0  0  0  0  0  0  0  0  0  0  0
  -12.8544  -26.9095   21.1411 C   0  0  0  0  0  0  0  0  0  0  0  0
  -13.0194  -25.5680   21.4177 C   0  0  0  0  0  0  0  0  0  0  0  0
  2  1  1  0
  1 15  2  0
  1 16  1  0
  4  2  2  0
  2  5  1  0
  3  4  1  0
  3  7  2  0
  8  3  1  0
  4 14  1  0
  6  5  2  0
  7  6  1  0
 11  8  2  0
  8 13  1  0
 10  9  2  0
  9 12  1  0
 10 11  1  0
 12 13  2  0
 16 17  1  0
 18 17  1  6
 18 19  2  0
 18 20  2  0
 18 21  1  0
 21 22  2  0
 21 26  1  0
 22 23  1  0
 23 24  2  0
 24 25  1  0
 25 26  2  0
M  END
$$$$
