
     RDKit          3D

 26 28  0  0  0  0  0  0  0  0999 V2000
  -16.7749  -25.5932   21.0709 C   0  0  0  0  0  0  0  0  0  0  0  0
  -17.7437  -26.4730   21.6893 C   0  0  0  0  0  0  0  0  0  0  0  0
  -19.3857  -27.1383   23.3226 C   0  0  0  0  0  0  0  0  0  0  0  0
  -18.4700  -26.2085   22.8080 C   0  0  0  0  0  0  0  0  0  0  0  0
  -17.9533  -27.7028   21.0858 C   0  0  0  0  0  0  0  0  0  0  0  0
  -18.8401  -28.6378   21.5597 C   0  0  0  0  0  0  0  0  0  0  0  0
  -19.5518  -28.3429   22.6813 C   0  0  0  0  0  0  0  0  0  0  0  0
  -20.1436  -26.8260   24.5157 C   0  0  0  0  0  0  0  0  0  0  0  0
  -21.5650  -26.2523   26.7826 C   0  0  0  0  0  0  0  0  0  0  0  0
  -21.8124  -25.5280   25.6403 C   0  0  0  0  0  0  0  0  0  0  0  0
  -21.0977  -25.8153   24.4975 C   0  0  0  0  0  0  0  0  0  0  0  0
  -20.6145  -27.2565   26.7941 C   0  0  0  0  0  0  0  0  0  0  0  0
  -19.8981  -27.5517   25.6666 C   0  0  0  0  0  0  0  0  0  0  0  0
  -18.3070  -25.0276   23.4366 F   0  0  0  0  0  0  0  0  0  0  0  0
  -16.1236  -26.0052   20.0395 O   0  0  0  0  0  0  0  0  0  0  0  0
  -16.4404  -24.2836   21.4747 N   0  0  0  0  0  0  0  0  0  0  0  0
  -15.4576  -23.5427   20.7517 N   0  0  0  0  0  0  0  0  0  0  0  0
  -16.0221  -21.9520   20.4373 S   0  0  1  0  0  6  0  0  0  0  0  0
  -16.6447  -21.3119   21.6176 O   0  0  0  0  0  0  0  0  0  0  0  0
  -14.8173  -21.1277   20.0527 O   0  0  0  0  0  0  0  0  0  0  0  0
  -17.1148  -21.9855   19.0741 C   0  0  0  0  0  0  0  0  0  0  0  0
  -18.4934  -21.8734   19.2616 C   0  0  0  0  0  0  0  0  0  0  0  0
  -19.3605  -21.8990   18.2039 C   0  0  0  0  0  0  0  0  0  0  0  0
  -18.8754  -22.0384   16.9155 C   0  0  0  0  0  0  0  0  0  0  0  0
  -17.5254  -22.1511   16.6967 C   0  0  0  0  0  0  0  0  0  0  0  0
  -16.6818  -22.1211   17.7882 C   0  0  0  0  0  0  0  0  0  0  0  0
  2  1  1  0
  1 15  2  0
  1 16  1  0
  4  2  2  0
  2  5  1  0
  3  4  1  0
  3  7  2  0
  8  3  1  0
  4 14  1  0
  6  5  2  0
  7  6  1  0
 11  8  2  0
  8 13  1  0
 10  9  2  0
  9 12  1  0
 10 11  1  0
 12 13  2  0
 16 17  1  0
 18 17  1  1
 18 19  2  0
 18 20  2  0
 18 21  1  0
 21 22  2  0
 21 26  1  0
 22 23  1  0
 23 24  2  0
 24 25  1  0
 25 26  2  0
M  END
$$$$
