
     RDKit          3D

 26 28  0  0  0  0  0  0  0  0999 V2000
  -19.4856  -30.7066    9.8150 C   0  0  0  0  0  0  0  0  0  0  0  0
  -18.1677  -30.1347    9.6716 C   0  0  0  0  0  0  0  0  0  0  0  0
  -16.3191  -28.6687   10.3106 C   0  0  0  0  0  0  0  0  0  0  0  0
  -17.5996  -29.2020   10.5010 C   0  0  0  0  0  0  0  0  0  0  0  0
  -17.4253  -30.5801    8.5715 C   0  0  0  0  0  0  0  0  0  0  0  0
  -16.1740  -30.0741    8.3658 C   0  0  0  0  0  0  0  0  0  0  0  0
  -15.6214  -29.1310    9.2189 C   0  0  0  0  0  0  0  0  0  0  0  0
  -15.7624  -27.6792   11.2219 C   0  0  0  0  0  0  0  0  0  0  0  0
  -14.6819  -25.7729   12.9819 C   0  0  0  0  0  0  0  0  0  0  0  0
  -13.9836  -26.9207   12.6709 C   0  0  0  0  0  0  0  0  0  0  0  0
  -14.5201  -27.8656   11.7980 C   0  0  0  0  0  0  0  0  0  0  0  0
  -15.9245  -25.5776   12.4110 C   0  0  0  0  0  0  0  0  0  0  0  0
  -16.4406  -26.5248   11.5480 C   0  0  0  0  0  0  0  0  0  0  0  0
  -18.2625  -28.7471   11.5754 F   0  0  0  0  0  0  0  0  0  0  0  0
  -20.0173  -31.2955    8.8048 O   0  0  0  0  0  0  0  0  0  0  0  0
  -20.2361  -30.6613   10.9993 N   0  0  0  0  0  0  0  0  0  0  0  0
  -21.4084  -31.4192   11.1845 N   0  0  0  0  0  0  0  0  0  0  0  0
  -22.1496  -31.0845   12.6921 S   0  0  1  0  0  6  0  0  0  0  0  0
  -23.2602  -32.0297   13.0091 O   0  0  0  0  0  0  0  0  0  0  0  0
  -21.1430  -30.9975   13.8014 O   0  0  0  0  0  0  0  0  0  0  0  0
  -22.8767  -29.4767   12.5633 C   0  0  0  0  0  0  0  0  0  0  0  0
  -24.0336  -29.2668   11.8489 C   0  0  0  0  0  0  0  0  0  0  0  0
  -24.6044  -28.0141   11.7457 C   0  0  0  0  0  0  0  0  0  0  0  0
  -24.0245  -26.9259   12.3628 C   0  0  0  0  0  0  0  0  0  0  0  0
  -22.8711  -27.1257   13.0771 C   0  0  0  0  0  0  0  0  0  0  0  0
  -22.2993  -28.3769   13.1813 C   0  0  0  0  0  0  0  0  0  0  0  0
  2  1  1  0
  1 15  2  0
  1 16  1  0
  4  2  2  0
  2  5  1  0
  3  4  1  0
  3  7  2  0
  8  3  1  0
  4 14  1  0
  6  5  2  0
  7  6  1  0
 11  8  2  0
  8 13  1  0
 10  9  2  0
  9 12  1  0
 10 11  1  0
 12 13  2  0
 16 17  1  0
 18 17  1  6
 18 19  2  0
 18 20  2  0
 18 21  1  0
 21 22  2  0
 21 26  1  0
 22 23  1  0
 23 24  2  0
 24 25  1  0
 25 26  2  0
M  END
$$$$
