
     RDKit          3D

 26 28  0  0  0  0  0  0  0  0999 V2000
  -17.8955  -29.5971   22.0565 C   0  0  0  0  0  0  0  0  0  0  0  0
  -19.1656  -29.8264   21.4094 C   0  0  0  0  0  0  0  0  0  0  0  0
  -21.6067  -29.8312   21.2833 C   0  0  0  0  0  0  0  0  0  0  0  0
  -20.4014  -29.5790   21.9498 C   0  0  0  0  0  0  0  0  0  0  0  0
  -19.1046  -30.3615   20.1172 C   0  0  0  0  0  0  0  0  0  0  0  0
  -20.2671  -30.6155   19.4479 C   0  0  0  0  0  0  0  0  0  0  0  0
  -21.5051  -30.3568   20.0162 C   0  0  0  0  0  0  0  0  0  0  0  0
  -22.8936  -29.5501   21.9033 C   0  0  0  0  0  0  0  0  0  0  0  0
  -25.3758  -29.0010   23.1019 C   0  0  0  0  0  0  0  0  0  0  0  0
  -24.3723  -28.0551   23.0940 C   0  0  0  0  0  0  0  0  0  0  0  0
  -23.1416  -28.3282   22.4994 C   0  0  0  0  0  0  0  0  0  0  0  0
  -25.1374  -30.2255   22.5085 C   0  0  0  0  0  0  0  0  0  0  0  0
  -23.9116  -30.4786   21.9240 C   0  0  0  0  0  0  0  0  0  0  0  0
  -20.5184  -29.0578   23.1809 F   0  0  0  0  0  0  0  0  0  0  0  0
  -16.8997  -30.3473   21.7474 O   0  0  0  0  0  0  0  0  0  0  0  0
  -17.6721  -28.5969   23.0144 N   0  0  0  0  0  0  0  0  0  0  0  0
  -16.8147  -28.7792   24.1165 N   0  0  0  0  0  0  0  0  0  0  0  0
  -16.9461  -27.4954   25.2428 S   0  0  1  0  0  6  0  0  0  0  0  0
  -17.9064  -27.7939   26.3455 O   0  0  0  0  0  0  0  0  0  0  0  0
  -15.6040  -27.0660   25.7583 O   0  0  0  0  0  0  0  0  0  0  0  0
  -17.6014  -26.1054   24.3657 C   0  0  0  0  0  0  0  0  0  0  0  0
  -16.7774  -25.1764   23.7736 C   0  0  0  0  0  0  0  0  0  0  0  0
  -17.2842  -24.0903   23.0884 C   0  0  0  0  0  0  0  0  0  0  0  0
  -18.6459  -23.9043   22.9771 C   0  0  0  0  0  0  0  0  0  0  0  0
  -19.4750  -24.8254   23.5642 C   0  0  0  0  0  0  0  0  0  0  0  0
  -18.9703  -25.9113   24.2493 C   0  0  0  0  0  0  0  0  0  0  0  0
  2  1  1  0
  1 15  2  0
  1 16  1  0
  4  2  2  0
  2  5  1  0
  3  4  1  0
  3  7  2  0
  8  3  1  0
  4 14  1  0
  6  5  2  0
  7  6  1  0
 11  8  2  0
  8 13  1  0
 10  9  2  0
  9 12  1  0
 10 11  1  0
 12 13  2  0
 16 17  1  0
 18 17  1  6
 18 19  2  0
 18 20  2  0
 18 21  1  0
 21 22  2  0
 21 26  1  0
 22 23  1  0
 23 24  2  0
 24 25  1  0
 25 26  2  0
M  END
$$$$
