
     RDKit          3D

 26 28  0  0  0  0  0  0  0  0999 V2000
  -17.4334  -22.7276   21.6718 C   0  0  0  0  0  0  0  0  0  0  0  0
  -17.6009  -22.1114   20.3728 C   0  0  0  0  0  0  0  0  0  0  0  0
  -17.2620  -21.8467   18.0019 C   0  0  0  0  0  0  0  0  0  0  0  0
  -17.0294  -22.5218   19.2092 C   0  0  0  0  0  0  0  0  0  0  0  0
  -18.4217  -20.9967   20.3054 C   0  0  0  0  0  0  0  0  0  0  0  0
  -18.6731  -20.3103   19.1431 C   0  0  0  0  0  0  0  0  0  0  0  0
  -18.0860  -20.7462   17.9957 C   0  0  0  0  0  0  0  0  0  0  0  0
  -16.6382  -22.3092   16.7802 C   0  0  0  0  0  0  0  0  0  0  0  0
  -15.4502  -23.1626   14.4674 C   0  0  0  0  0  0  0  0  0  0  0  0
  -16.1931  -24.0555   15.2033 C   0  0  0  0  0  0  0  0  0  0  0  0
  -16.7922  -23.6279   16.3683 C   0  0  0  0  0  0  0  0  0  0  0  0
  -15.3009  -21.8521   14.8827 C   0  0  0  0  0  0  0  0  0  0  0  0
  -15.8903  -21.4147   16.0372 C   0  0  0  0  0  0  0  0  0  0  0  0
  -16.2216  -23.6006   19.2155 F   0  0  0  0  0  0  0  0  0  0  0  0
  -17.2733  -21.9764   22.7051 O   0  0  0  0  0  0  0  0  0  0  0  0
  -17.4232  -24.1085   21.9596 N   0  0  0  0  0  0  0  0  0  0  0  0
  -17.2529  -24.5562   23.3044 N   0  0  0  0  0  0  0  0  0  0  0  0
  -16.7640  -26.2019   23.3274 S   0  0  1  0  0  6  0  0  0  0  0  0
  -17.3712  -26.9735   24.4348 O   0  0  0  0  0  0  0  0  0  0  0  0
  -17.2336  -26.8165   22.0310 O   0  0  0  0  0  0  0  0  0  0  0  0
  -15.0192  -26.2858   23.3676 C   0  0  0  0  0  0  0  0  0  0  0  0
  -14.2798  -26.3389   22.1849 C   0  0  0  0  0  0  0  0  0  0  0  0
  -12.9136  -26.4058   22.2013 C   0  0  0  0  0  0  0  0  0  0  0  0
  -12.2367  -26.4219   23.4081 C   0  0  0  0  0  0  0  0  0  0  0  0
  -12.9337  -26.3709   24.5890 C   0  0  0  0  0  0  0  0  0  0  0  0
  -14.3108  -26.3041   24.5326 C   0  0  0  0  0  0  0  0  0  0  0  0
  2  1  1  0
  1 15  2  0
  1 16  1  0
  4  2  2  0
  2  5  1  0
  3  4  1  0
  3  7  2  0
  8  3  1  0
  4 14  1  0
  6  5  2  0
  7  6  1  0
 11  8  2  0
  8 13  1  0
 10  9  2  0
  9 12  1  0
 10 11  1  0
 12 13  2  0
 16 17  1  0
 18 17  1  6
 18 19  2  0
 18 20  2  0
 18 21  1  0
 21 22  2  0
 21 26  1  0
 22 23  1  0
 23 24  2  0
 24 25  1  0
 25 26  2  0
M  END
$$$$
