
     RDKit          3D

 38 43  0  0  0  0  0  0  0  0999 V2000
   92.7830   51.9949  267.7523 C   0  0  0  0  0  0  0  0  0  0  0  0
   93.1227   53.1452  268.4326 C   0  0  0  0  0  0  0  0  0  0  0  0
   92.5528   54.3672  268.4820 N   0  0  0  0  0  0  0  0  0  0  0  0
   91.3565   54.7746  267.7706 C   0  0  0  0  0  0  0  0  0  0  0  0
   93.2935   55.1222  269.3031 C   0  0  0  0  0  0  0  0  0  0  0  0
   94.3588   54.3889  269.7967 C   0  0  0  0  0  0  0  0  0  0  0  0
   94.2517   53.1293  269.2433 C   0  0  0  0  0  0  0  0  0  0  0  0
   94.9926   51.9692  269.3410 C   0  0  0  0  0  0  0  0  0  0  0  0
   94.6273   50.8332  268.6476 C   0  0  0  0  0  0  0  0  0  0  0  0
   93.5015   50.8325  267.8330 C   0  0  0  0  0  0  0  0  0  0  0  0
   93.0981   49.6299  267.0864 C   0  0  0  0  0  0  0  0  0  0  0  0
   91.8328   49.4916  266.5659 C   0  0  0  0  0  0  0  0  0  0  0  0
   94.0359   48.6331  266.9208 C   0  0  0  0  0  0  0  0  0  0  0  0
   95.2814   48.7553  267.4259 N   0  0  0  0  0  0  0  0  0  0  0  0
   96.2077   47.7866  267.2704 C   0  0  0  0  0  0  0  0  0  0  0  0
   95.8463   46.6606  266.5772 C   0  0  0  0  0  0  0  0  0  0  0  0
   94.5932   46.5376  266.0690 N   0  0  0  0  0  0  0  0  0  0  0  0
   93.6704   47.5018  266.2235 C   0  0  0  0  0  0  0  0  0  0  0  0
   92.3930   47.3729  265.7038 C   0  0  0  0  0  0  0  0  0  0  0  0
   91.4356   48.3527  265.8530 C   0  0  0  0  0  0  0  0  0  0  0  0
   90.1049   48.2692  265.3698 N   0  0  0  0  0  0  0  0  0  0  0  0
   89.7367   47.3566  264.3633 C   0  0  0  0  0  0  0  0  0  0  0  0
   90.6221   46.9321  263.3836 C   0  0  0  0  0  0  0  0  0  0  0  0
   90.2580   46.0155  262.4266 C   0  0  0  0  0  0  0  0  0  0  0  0
   89.0017   45.5014  262.4244 C   0  0  0  0  0  0  0  0  0  0  0  0
   88.1209   45.9276  263.4026 C   0  0  0  0  0  0  0  0  0  0  0  0
   88.4435   46.8435  264.3786 C   0  0  0  0  0  0  0  0  0  0  0  0
   87.3602   47.3711  265.5978 S   0  0  2  0  0  6  0  0  0  0  0  0
   85.9511   46.9711  265.1516 O   0  0  0  0  0  0  0  0  0  0  0  0
   87.3651   48.8725  265.6904 O   0  0  0  0  0  0  0  0  0  0  0  0
   87.5695   46.7446  267.1476 N   0  0  0  0  0  0  0  0  0  0  0  0
   87.8574   45.3581  267.2696 C   0  0  0  0  0  0  0  0  0  0  0  0
   89.1839   45.1569  267.9037 C   0  0  0  0  0  0  0  0  0  0  0  0
   89.4357   45.7820  269.0987 C   0  0  0  0  0  0  0  0  0  0  0  0
   90.6439   45.5898  269.6662 N   0  0  0  0  0  0  0  0  0  0  0  0
   91.5795   44.8150  269.0927 C   0  0  0  0  0  0  0  0  0  0  0  0
   91.3432   44.1944  267.9163 N   0  0  0  0  0  0  0  0  0  0  0  0
   90.1334   44.3651  267.3128 C   0  0  0  0  0  0  0  0  0  0  0  0
  1  2  2  0
  1 10  1  0
  2  3  1  0
  2  7  1  0
  3  4  1  0
  3  5  1  0
  5  6  2  0
  6  7  1  0
  7  8  2  0
  8  9  1  0
  9 10  2  0
 10 11  1  0
 11 12  2  0
 11 13  1  0
 12 20  1  0
 13 14  2  0
 13 18  1  0
 14 15  1  0
 15 16  2  0
 16 17  1  0
 17 18  2  0
 18 19  1  0
 19 20  2  0
 20 21  1  0
 21 22  1  0
 22 23  2  0
 22 27  1  0
 23 24  1  0
 24 25  2  0
 25 26  1  0
 26 27  2  0
 27 28  1  0
 28 29  2  0
 28 30  2  0
 28 31  1  1
 31 32  1  0
 32 33  1  0
 33 34  2  0
 33 38  1  0
 34 35  1  0
 35 36  2  0
 36 37  1  0
 37 38  2  0
M  END
$$$$
