
     RDKit          3D

 38 43  0  0  0  0  0  0  0  0999 V2000
   93.1733   52.0221  267.0129 C   0  0  0  0  0  0  0  0  0  0  0  0
   93.4976   53.1962  267.6594 C   0  0  0  0  0  0  0  0  0  0  0  0
   93.1706   54.4822  267.4147 N   0  0  0  0  0  0  0  0  0  0  0  0
   92.3358   54.9528  266.3263 C   0  0  0  0  0  0  0  0  0  0  0  0
   93.7570   55.2312  268.3571 C   0  0  0  0  0  0  0  0  0  0  0  0
   94.4748   54.4294  269.2277 C   0  0  0  0  0  0  0  0  0  0  0  0
   94.3108   53.1328  268.7849 C   0  0  0  0  0  0  0  0  0  0  0  0
   94.7653   51.9035  269.2172 C   0  0  0  0  0  0  0  0  0  0  0  0
   94.4236   50.7454  268.5490 C   0  0  0  0  0  0  0  0  0  0  0  0
   93.6115   50.7915  267.4222 C   0  0  0  0  0  0  0  0  0  0  0  0
   93.2378   49.5660  266.6977 C   0  0  0  0  0  0  0  0  0  0  0  0
   91.9362   49.3066  266.3375 C   0  0  0  0  0  0  0  0  0  0  0  0
   94.2414   48.6739  266.3859 C   0  0  0  0  0  0  0  0  0  0  0  0
   95.5231   48.9156  266.7329 N   0  0  0  0  0  0  0  0  0  0  0  0
   96.5139   48.0501  266.4333 C   0  0  0  0  0  0  0  0  0  0  0  0
   96.1808   46.9043  265.7587 C   0  0  0  0  0  0  0  0  0  0  0  0
   94.8914   46.6612  265.4095 N   0  0  0  0  0  0  0  0  0  0  0  0
   93.9043   47.5225  265.7075 C   0  0  0  0  0  0  0  0  0  0  0  0
   92.5900   47.2711  265.3499 C   0  0  0  0  0  0  0  0  0  0  0  0
   91.5666   48.1445  265.6475 C   0  0  0  0  0  0  0  0  0  0  0  0
   90.1999   47.9322  265.3341 N   0  0  0  0  0  0  0  0  0  0  0  0
   89.7975   47.3848  264.1013 C   0  0  0  0  0  0  0  0  0  0  0  0
   90.6488   47.3051  263.0091 C   0  0  0  0  0  0  0  0  0  0  0  0
   90.2522   46.7382  261.8218 C   0  0  0  0  0  0  0  0  0  0  0  0
   88.9967   46.2377  261.6962 C   0  0  0  0  0  0  0  0  0  0  0  0
   88.1499   46.3195  262.7874 C   0  0  0  0  0  0  0  0  0  0  0  0
   88.5056   46.8793  263.9938 C   0  0  0  0  0  0  0  0  0  0  0  0
   87.4648   46.9780  265.3521 S   0  0  2  0  0  6  0  0  0  0  0  0
   86.1106   46.4057  264.9240 O   0  0  0  0  0  0  0  0  0  0  0  0
   87.2194   48.4152  265.7221 O   0  0  0  0  0  0  0  0  0  0  0  0
   87.9208   46.1438  266.7430 N   0  0  0  0  0  0  0  0  0  0  0  0
   88.2684   44.7721  266.6102 C   0  0  0  0  0  0  0  0  0  0  0  0
   88.5387   44.1735  267.9408 C   0  0  0  0  0  0  0  0  0  0  0  0
   88.4586   44.9816  269.0467 C   0  0  0  0  0  0  0  0  0  0  0  0
   88.7043   44.4257  270.2504 N   0  0  0  0  0  0  0  0  0  0  0  0
   89.0180   43.1258  270.3785 C   0  0  0  0  0  0  0  0  0  0  0  0
   89.0999   42.3202  269.2972 N   0  0  0  0  0  0  0  0  0  0  0  0
   88.8582   42.8466  268.0637 C   0  0  0  0  0  0  0  0  0  0  0  0
  1  2  2  0
  1 10  1  0
  2  3  1  0
  2  7  1  0
  3  4  1  0
  3  5  1  0
  5  6  2  0
  6  7  1  0
  7  8  2  0
  8  9  1  0
  9 10  2  0
 10 11  1  0
 11 12  2  0
 11 13  1  0
 12 20  1  0
 13 14  2  0
 13 18  1  0
 14 15  1  0
 15 16  2  0
 16 17  1  0
 17 18  2  0
 18 19  1  0
 19 20  2  0
 20 21  1  0
 21 22  1  0
 22 23  2  0
 22 27  1  0
 23 24  1  0
 24 25  2  0
 25 26  1  0
 26 27  2  0
 27 28  1  0
 28 29  2  0
 28 30  2  0
 28 31  1  1
 31 32  1  0
 32 33  1  0
 33 34  2  0
 33 38  1  0
 34 35  1  0
 35 36  2  0
 36 37  1  0
 37 38  2  0
M  END
$$$$
