
     RDKit          3D

 38 43  0  0  0  0  0  0  0  0999 V2000
   94.2061   51.8296  266.4716 C   0  0  0  0  0  0  0  0  0  0  0  0
   94.5608   53.1407  266.7039 C   0  0  0  0  0  0  0  0  0  0  0  0
   94.5907   54.2367  265.8975 N   0  0  0  0  0  0  0  0  0  0  0  0
   94.2152   54.2266  264.4966 C   0  0  0  0  0  0  0  0  0  0  0  0
   95.0203   55.2552  266.6560 C   0  0  0  0  0  0  0  0  0  0  0  0
   95.2714   54.8539  267.9349 C   0  0  0  0  0  0  0  0  0  0  0  0
   94.9791   53.5022  267.9709 C   0  0  0  0  0  0  0  0  0  0  0  0
   95.0342   52.5543  268.9723 C   0  0  0  0  0  0  0  0  0  0  0  0
   94.6817   51.2440  268.7474 C   0  0  0  0  0  0  0  0  0  0  0  0
   94.2589   50.8755  267.4693 C   0  0  0  0  0  0  0  0  0  0  0  0
   93.8703   49.5062  267.1588 C   0  0  0  0  0  0  0  0  0  0  0  0
   92.5831   49.2324  266.7527 C   0  0  0  0  0  0  0  0  0  0  0  0
   94.7369   48.4389  267.2494 C   0  0  0  0  0  0  0  0  0  0  0  0
   96.0032   48.6204  267.6362 N   0  0  0  0  0  0  0  0  0  0  0  0
   96.8605   47.6023  267.7314 C   0  0  0  0  0  0  0  0  0  0  0  0
   96.4627   46.3249  267.4314 C   0  0  0  0  0  0  0  0  0  0  0  0
   95.1970   46.1088  267.0396 N   0  0  0  0  0  0  0  0  0  0  0  0
   94.3464   47.1458  266.9491 C   0  0  0  0  0  0  0  0  0  0  0  0
   93.0650   46.9094  266.5499 C   0  0  0  0  0  0  0  0  0  0  0  0
   92.1716   47.9231  266.4445 C   0  0  0  0  0  0  0  0  0  0  0  0
   90.8449   47.7656  266.0114 N   0  0  0  0  0  0  0  0  0  0  0  0
   89.7754   48.3517  266.7272 C   0  0  0  0  0  0  0  0  0  0  0  0
   89.8922   49.5316  267.4262 C   0  0  0  0  0  0  0  0  0  0  0  0
   88.8446   50.0835  268.1165 C   0  0  0  0  0  0  0  0  0  0  0  0
   87.6359   49.4345  268.1083 C   0  0  0  0  0  0  0  0  0  0  0  0
   87.5167   48.2568  267.4114 C   0  0  0  0  0  0  0  0  0  0  0  0
   88.5622   47.6830  266.7094 C   0  0  0  0  0  0  0  0  0  0  0  0
   88.2570   46.1740  265.9262 S   0  0  2  0  0  6  0  0  0  0  0  0
   87.2852   45.4040  266.8128 O   0  0  0  0  0  0  0  0  0  0  0  0
   89.5198   45.3582  265.9263 O   0  0  0  0  0  0  0  0  0  0  0  0
   87.5582   46.2880  264.3795 N   0  0  0  0  0  0  0  0  0  0  0  0
   87.4052   47.6613  263.9337 C   0  0  0  0  0  0  0  0  0  0  0  0
   88.3084   47.9818  262.8203 C   0  0  0  0  0  0  0  0  0  0  0  0
   88.2435   49.1712  262.1108 C   0  0  0  0  0  0  0  0  0  0  0  0
   89.0940   49.3990  261.1104 N   0  0  0  0  0  0  0  0  0  0  0  0
   90.0409   48.5242  260.7318 C   0  0  0  0  0  0  0  0  0  0  0  0
   90.1133   47.3705  261.4106 N   0  0  0  0  0  0  0  0  0  0  0  0
   89.2881   47.0819  262.4251 C   0  0  0  0  0  0  0  0  0  0  0  0
  1  2  2  0
  1 10  1  0
  2  3  1  0
  2  7  1  0
  4  3  1  6
  3  5  1  0
  5  6  2  0
  6  7  1  0
  7  8  2  0
  8  9  1  0
  9 10  2  0
 10 11  1  0
 11 12  2  0
 11 13  1  0
 12 20  1  0
 13 14  2  0
 13 18  1  0
 14 15  1  0
 15 16  2  0
 16 17  1  0
 17 18  2  0
 18 19  1  0
 19 20  2  0
 20 21  1  0
 21 22  1  0
 22 23  2  0
 22 27  1  0
 23 24  1  0
 24 25  2  0
 25 26  1  0
 26 27  2  0
 27 28  1  0
 28 29  2  0
 28 30  2  0
 28 31  1  6
 32 31  1  1
 32 33  1  0
 33 34  2  0
 33 38  1  0
 34 35  1  0
 35 36  2  0
 36 37  1  0
 37 38  2  0
M  END
$$$$
