
     RDKit          3D

 38 43  0  0  0  0  0  0  0  0999 V2000
   92.8422   51.6236  268.2359 C   0  0  0  0  0  0  0  0  0  0  0  0
   93.1362   52.8629  268.7617 C   0  0  0  0  0  0  0  0  0  0  0  0
   92.5594   53.5961  269.7528 N   0  0  0  0  0  0  0  0  0  0  0  0
   91.4072   53.1631  270.5200 C   0  0  0  0  0  0  0  0  0  0  0  0
   93.2628   54.7338  269.8426 C   0  0  0  0  0  0  0  0  0  0  0  0
   94.2824   54.7630  268.9374 C   0  0  0  0  0  0  0  0  0  0  0  0
   94.2059   53.5687  268.2435 C   0  0  0  0  0  0  0  0  0  0  0  0
   94.9545   53.0266  267.2188 C   0  0  0  0  0  0  0  0  0  0  0  0
   94.6667   51.7902  266.6893 C   0  0  0  0  0  0  0  0  0  0  0  0
   93.5873   51.0748  267.2101 C   0  0  0  0  0  0  0  0  0  0  0  0
   93.2246   49.7599  266.6985 C   0  0  0  0  0  0  0  0  0  0  0  0
   91.9304   49.5111  266.2987 C   0  0  0  0  0  0  0  0  0  0  0  0
   94.1231   48.7213  266.5873 C   0  0  0  0  0  0  0  0  0  0  0  0
   95.3982   48.8814  266.9541 N   0  0  0  0  0  0  0  0  0  0  0  0
   96.2863   47.8904  266.8556 C   0  0  0  0  0  0  0  0  0  0  0  0
   95.9122   46.6642  266.3693 C   0  0  0  0  0  0  0  0  0  0  0  0
   94.6384   46.4707  265.9921 N   0  0  0  0  0  0  0  0  0  0  0  0
   93.7567   47.4799  266.0980 C   0  0  0  0  0  0  0  0  0  0  0  0
   92.4676   47.2671  265.7108 C   0  0  0  0  0  0  0  0  0  0  0  0
   91.5431   48.2543  265.7997 C   0  0  0  0  0  0  0  0  0  0  0  0
   90.2051   48.1232  265.3932 N   0  0  0  0  0  0  0  0  0  0  0  0
   89.8260   47.1310  264.4597 C   0  0  0  0  0  0  0  0  0  0  0  0
   90.6911   46.5993  263.5307 C   0  0  0  0  0  0  0  0  0  0  0  0
   90.3048   45.6395  262.6317 C   0  0  0  0  0  0  0  0  0  0  0  0
   89.0078   45.1935  262.6615 C   0  0  0  0  0  0  0  0  0  0  0  0
   88.1423   45.7225  263.5879 C   0  0  0  0  0  0  0  0  0  0  0  0
   88.5126   46.6925  264.5029 C   0  0  0  0  0  0  0  0  0  0  0  0
   87.2888   47.2855  265.5679 S   0  0  2  0  0  6  0  0  0  0  0  0
   85.9639   47.1810  264.8214 O   0  0  0  0  0  0  0  0  0  0  0  0
   87.5015   48.7575  265.7867 O   0  0  0  0  0  0  0  0  0  0  0  0
   87.1218   46.4298  267.0286 N   0  0  0  0  0  0  0  0  0  0  0  0
   87.9013   45.2051  267.0526 C   0  0  0  0  0  0  0  0  0  0  0  0
   87.1068   44.0563  267.5080 C   0  0  0  0  0  0  0  0  0  0  0  0
   86.4347   43.2089  266.6407 C   0  0  0  0  0  0  0  0  0  0  0  0
   85.7309   42.1839  267.1205 N   0  0  0  0  0  0  0  0  0  0  0  0
   85.6263   41.9086  268.4314 C   0  0  0  0  0  0  0  0  0  0  0  0
   86.2721   42.7212  269.2798 N   0  0  0  0  0  0  0  0  0  0  0  0
   86.9954   43.7675  268.8608 C   0  0  0  0  0  0  0  0  0  0  0  0
  1  2  2  0
  1 10  1  0
  2  3  1  0
  2  7  1  0
  4  3  1  6
  3  5  1  0
  5  6  2  0
  6  7  1  0
  7  8  2  0
  8  9  1  0
  9 10  2  0
 10 11  1  0
 11 12  2  0
 11 13  1  0
 12 20  1  0
 13 14  2  0
 13 18  1  0
 14 15  1  0
 15 16  2  0
 16 17  1  0
 17 18  2  0
 18 19  1  0
 19 20  2  0
 20 21  1  0
 21 22  1  0
 22 23  2  0
 22 27  1  0
 23 24  1  0
 24 25  2  0
 25 26  1  0
 26 27  2  0
 27 28  1  0
 28 29  2  0
 28 30  2  0
 28 31  1  1
 32 31  1  1
 32 33  1  0
 33 34  2  0
 33 38  1  0
 34 35  1  0
 35 36  2  0
 36 37  1  0
 37 38  2  0
M  END
$$$$
