
     RDKit          3D

 38 43  0  0  0  0  0  0  0  0999 V2000
   90.6502   45.4014  267.2817 C   0  0  0  0  0  0  0  0  0  0  0  0
   89.6454   44.4604  267.2189 C   0  0  0  0  0  0  0  0  0  0  0  0
   89.1641   43.5741  268.1327 N   0  0  0  0  0  0  0  0  0  0  0  0
   89.6730   43.4418  269.4844 C   0  0  0  0  0  0  0  0  0  0  0  0
   88.1766   42.9007  267.5256 C   0  0  0  0  0  0  0  0  0  0  0  0
   88.0005   43.3234  266.2411 C   0  0  0  0  0  0  0  0  0  0  0  0
   88.9375   44.3209  266.0397 C   0  0  0  0  0  0  0  0  0  0  0  0
   89.2450   45.1178  264.9559 C   0  0  0  0  0  0  0  0  0  0  0  0
   90.2465   46.0590  265.0117 C   0  0  0  0  0  0  0  0  0  0  0  0
   90.9633   46.2025  266.2007 C   0  0  0  0  0  0  0  0  0  0  0  0
   92.0369   47.1785  266.3319 C   0  0  0  0  0  0  0  0  0  0  0  0
   91.7414   48.4878  266.6401 C   0  0  0  0  0  0  0  0  0  0  0  0
   93.3670   46.8618  266.1616 C   0  0  0  0  0  0  0  0  0  0  0  0
   93.7370   45.6134  265.8607 N   0  0  0  0  0  0  0  0  0  0  0  0
   95.0186   45.2831  265.6911 C   0  0  0  0  0  0  0  0  0  0  0  0
   96.0053   46.2261  265.8221 C   0  0  0  0  0  0  0  0  0  0  0  0
   95.6668   47.4897  266.1238 N   0  0  0  0  0  0  0  0  0  0  0  0
   94.3709   47.8053  266.2913 C   0  0  0  0  0  0  0  0  0  0  0  0
   94.0442   49.0925  266.5974 C   0  0  0  0  0  0  0  0  0  0  0  0
   92.7511   49.4579  266.7750 C   0  0  0  0  0  0  0  0  0  0  0  0
   92.3365   50.7543  267.1214 N   0  0  0  0  0  0  0  0  0  0  0  0
   93.0422   51.8883  266.6570 C   0  0  0  0  0  0  0  0  0  0  0  0
   94.3826   51.8673  266.3452 C   0  0  0  0  0  0  0  0  0  0  0  0
   95.0505   52.9776  265.8986 C   0  0  0  0  0  0  0  0  0  0  0  0
   94.3553   54.1518  265.7572 C   0  0  0  0  0  0  0  0  0  0  0  0
   93.0173   54.1754  266.0677 C   0  0  0  0  0  0  0  0  0  0  0  0
   92.3253   53.0659  266.5208 C   0  0  0  0  0  0  0  0  0  0  0  0
   90.6563   53.2783  266.9122 S   0  0  2  0  0  6  0  0  0  0  0  0
   89.9108   52.0802  266.3359 O   0  0  0  0  0  0  0  0  0  0  0  0
   90.1257   54.4688  266.1631 O   0  0  0  0  0  0  0  0  0  0  0  0
   90.3047   53.3483  268.5751 N   0  0  0  0  0  0  0  0  0  0  0  0
   91.0427   54.3942  269.2603 C   0  0  0  0  0  0  0  0  0  0  0  0
   91.6155   53.9227  270.5283 C   0  0  0  0  0  0  0  0  0  0  0  0
   91.4022   52.6471  271.0277 C   0  0  0  0  0  0  0  0  0  0  0  0
   91.9521   52.2830  272.1858 N   0  0  0  0  0  0  0  0  0  0  0  0
   92.7245   53.0966  272.9252 C   0  0  0  0  0  0  0  0  0  0  0  0
   92.9379   54.3327  272.4523 N   0  0  0  0  0  0  0  0  0  0  0  0
   92.4140   54.7589  271.2959 C   0  0  0  0  0  0  0  0  0  0  0  0
  1  2  2  0
  1 10  1  0
  2  3  1  0
  2  7  1  0
  4  3  1  6
  3  5  1  0
  5  6  2  0
  6  7  1  0
  7  8  2  0
  8  9  1  0
  9 10  2  0
 10 11  1  0
 11 12  2  0
 11 13  1  0
 12 20  1  0
 13 14  2  0
 13 18  1  0
 14 15  1  0
 15 16  2  0
 16 17  1  0
 17 18  2  0
 18 19  1  0
 19 20  2  0
 20 21  1  0
 21 22  1  0
 22 23  2  0
 22 27  1  0
 23 24  1  0
 24 25  2  0
 25 26  1  0
 26 27  2  0
 27 28  1  0
 28 29  2  0
 28 30  2  0
 28 31  1  1
 32 31  1  1
 32 33  1  0
 33 34  2  0
 33 38  1  0
 34 35  1  0
 35 36  2  0
 36 37  1  0
 37 38  2  0
M  END
$$$$
