
     RDKit          3D

 38 43  0  0  0  0  0  0  0  0999 V2000
   92.8534   51.3889  268.3127 C   0  0  0  0  0  0  0  0  0  0  0  0
   93.1702   52.5647  268.9598 C   0  0  0  0  0  0  0  0  0  0  0  0
   92.6029   53.2015  270.0054 N   0  0  0  0  0  0  0  0  0  0  0  0
   91.4368   52.7520  270.7411 C   0  0  0  0  0  0  0  0  0  0  0  0
   93.3136   54.3137  270.2309 C   0  0  0  0  0  0  0  0  0  0  0  0
   94.3563   54.4073  269.3253 C   0  0  0  0  0  0  0  0  0  0  0  0
   94.2666   53.2940  268.5148 C   0  0  0  0  0  0  0  0  0  0  0  0
   94.9993   52.8208  267.4453 C   0  0  0  0  0  0  0  0  0  0  0  0
   94.6575   51.6402  266.8177 C   0  0  0  0  0  0  0  0  0  0  0  0
   93.5644   50.8992  267.2504 C   0  0  0  0  0  0  0  0  0  0  0  0
   93.1860   49.6382  266.5922 C   0  0  0  0  0  0  0  0  0  0  0  0
   91.9028   49.4063  266.1555 C   0  0  0  0  0  0  0  0  0  0  0  0
   94.1661   48.6837  266.4230 C   0  0  0  0  0  0  0  0  0  0  0  0
   95.4297   48.8977  266.8464 N   0  0  0  0  0  0  0  0  0  0  0  0
   96.3974   47.9712  266.6865 C   0  0  0  0  0  0  0  0  0  0  0  0
   96.0597   46.7917  266.0750 C   0  0  0  0  0  0  0  0  0  0  0  0
   94.7886   46.5764  265.6491 N   0  0  0  0  0  0  0  0  0  0  0  0
   93.8244   47.4985  265.8080 C   0  0  0  0  0  0  0  0  0  0  0  0
   92.5288   47.2754  265.3723 C   0  0  0  0  0  0  0  0  0  0  0  0
   91.5290   48.2110  265.5273 C   0  0  0  0  0  0  0  0  0  0  0  0
   90.1797   48.0324  265.1288 N   0  0  0  0  0  0  0  0  0  0  0  0
   89.8274   47.1885  264.0587 C   0  0  0  0  0  0  0  0  0  0  0  0
   90.6434   47.0108  262.9513 C   0  0  0  0  0  0  0  0  0  0  0  0
   90.3015   46.1583  261.9292 C   0  0  0  0  0  0  0  0  0  0  0  0
   89.1370   45.4633  261.9879 C   0  0  0  0  0  0  0  0  0  0  0  0
   88.3250   45.6435  263.0937 C   0  0  0  0  0  0  0  0  0  0  0  0
   88.6284   46.4870  264.1385 C   0  0  0  0  0  0  0  0  0  0  0  0
   87.6313   46.7102  265.5147 S   0  0  2  0  0  6  0  0  0  0  0  0
   86.1995   46.3675  265.0936 O   0  0  0  0  0  0  0  0  0  0  0  0
   87.6175   48.1577  265.9238 O   0  0  0  0  0  0  0  0  0  0  0  0
   87.9673   45.7784  266.8775 N   0  0  0  0  0  0  0  0  0  0  0  0
   89.2865   45.2703  267.0251 C   0  0  0  0  0  0  0  0  0  0  0  0
   89.5521   44.9184  268.4420 C   0  0  0  0  0  0  0  0  0  0  0  0
   88.5279   45.0421  269.3465 C   0  0  0  0  0  0  0  0  0  0  0  0
   88.7809   44.7172  270.6306 N   0  0  0  0  0  0  0  0  0  0  0  0
   89.9900   44.2855  271.0261 C   0  0  0  0  0  0  0  0  0  0  0  0
   91.0061   44.1596  270.1448 N   0  0  0  0  0  0  0  0  0  0  0  0
   90.7881   44.4787  268.8380 C   0  0  0  0  0  0  0  0  0  0  0  0
  1  2  2  0
  1 10  1  0
  2  3  1  0
  2  7  1  0
  3  4  1  0
  3  5  1  0
  5  6  2  0
  6  7  1  0
  7  8  2  0
  8  9  1  0
  9 10  2  0
 10 11  1  0
 11 12  2  0
 11 13  1  0
 12 20  1  0
 13 14  2  0
 13 18  1  0
 14 15  1  0
 15 16  2  0
 16 17  1  0
 17 18  2  0
 18 19  1  0
 19 20  2  0
 20 21  1  0
 21 22  1  0
 22 23  2  0
 22 27  1  0
 23 24  1  0
 24 25  2  0
 25 26  1  0
 26 27  2  0
 27 28  1  0
 28 29  2  0
 28 30  2  0
 28 31  1  1
 31 32  1  0
 32 33  1  0
 33 34  2  0
 33 38  1  0
 34 35  1  0
 35 36  2  0
 36 37  1  0
 37 38  2  0
M  END
$$$$
