
     RDKit          3D

 38 43  0  0  0  0  0  0  0  0999 V2000
   92.7054   51.5553  268.1608 C   0  0  0  0  0  0  0  0  0  0  0  0
   92.9405   52.6660  268.9435 C   0  0  0  0  0  0  0  0  0  0  0  0
   92.1180   53.6185  269.4302 N   0  0  0  0  0  0  0  0  0  0  0  0
   90.6849   53.6902  269.2199 C   0  0  0  0  0  0  0  0  0  0  0  0
   92.8686   54.4740  270.1357 C   0  0  0  0  0  0  0  0  0  0  0  0
   94.1951   54.0792  270.1115 C   0  0  0  0  0  0  0  0  0  0  0  0
   94.2429   52.9277  269.3525 C   0  0  0  0  0  0  0  0  0  0  0  0
   95.2539   52.0722  268.9644 C   0  0  0  0  0  0  0  0  0  0  0  0
   94.9875   50.9681  268.1805 C   0  0  0  0  0  0  0  0  0  0  0  0
   93.6910   50.6924  267.7632 C   0  0  0  0  0  0  0  0  0  0  0  0
   93.3896   49.5194  266.9266 C   0  0  0  0  0  0  0  0  0  0  0  0
   92.1110   49.2415  266.5035 C   0  0  0  0  0  0  0  0  0  0  0  0
   94.4379   48.6966  266.5742 C   0  0  0  0  0  0  0  0  0  0  0  0
   95.6978   48.9572  266.9820 N   0  0  0  0  0  0  0  0  0  0  0  0
   96.7319   48.1593  266.6436 C   0  0  0  0  0  0  0  0  0  0  0  0
   96.4663   47.0630  265.8647 C   0  0  0  0  0  0  0  0  0  0  0  0
   95.1989   46.8008  265.4544 N   0  0  0  0  0  0  0  0  0  0  0  0
   94.1687   47.5948  265.7910 C   0  0  0  0  0  0  0  0  0  0  0  0
   92.8770   47.3242  265.3707 C   0  0  0  0  0  0  0  0  0  0  0  0
   91.8100   48.1289  265.7068 C   0  0  0  0  0  0  0  0  0  0  0  0
   90.4631   47.8914  265.3321 N   0  0  0  0  0  0  0  0  0  0  0  0
   90.0908   46.7638  264.5762 C   0  0  0  0  0  0  0  0  0  0  0  0
   90.9914   46.0706  263.7810 C   0  0  0  0  0  0  0  0  0  0  0  0
   90.6212   44.9518  263.0741 C   0  0  0  0  0  0  0  0  0  0  0  0
   89.3436   44.4986  263.1437 C   0  0  0  0  0  0  0  0  0  0  0  0
   88.4476   45.1930  263.9373 C   0  0  0  0  0  0  0  0  0  0  0  0
   88.7757   46.3174  264.6607 C   0  0  0  0  0  0  0  0  0  0  0  0
   87.6734   47.1788  265.6513 S   0  0  2  0  0  6  0  0  0  0  0  0
   86.2791   46.9821  265.0497 O   0  0  0  0  0  0  0  0  0  0  0  0
   87.9565   48.6549  265.5910 O   0  0  0  0  0  0  0  0  0  0  0  0
   87.5663   46.7262  267.2706 N   0  0  0  0  0  0  0  0  0  0  0  0
   87.9148   45.3909  267.6108 C   0  0  0  0  0  0  0  0  0  0  0  0
   88.4737   45.3338  268.9842 C   0  0  0  0  0  0  0  0  0  0  0  0
   88.7364   44.1026  269.5296 C   0  0  0  0  0  0  0  0  0  0  0  0
   89.2461   44.0637  270.7775 N   0  0  0  0  0  0  0  0  0  0  0  0
   89.4938   45.1844  271.4756 C   0  0  0  0  0  0  0  0  0  0  0  0
   89.2394   46.4023  270.9494 N   0  0  0  0  0  0  0  0  0  0  0  0
   88.7238   46.4813  269.6904 C   0  0  0  0  0  0  0  0  0  0  0  0
  1  2  2  0
  1 10  1  0
  2  3  1  0
  2  7  1  0
  3  4  1  0
  3  5  1  0
  5  6  2  0
  6  7  1  0
  7  8  2  0
  8  9  1  0
  9 10  2  0
 10 11  1  0
 11 12  2  0
 11 13  1  0
 12 20  1  0
 13 14  2  0
 13 18  1  0
 14 15  1  0
 15 16  2  0
 16 17  1  0
 17 18  2  0
 18 19  1  0
 19 20  2  0
 20 21  1  0
 21 22  1  0
 22 23  2  0
 22 27  1  0
 23 24  1  0
 24 25  2  0
 25 26  1  0
 26 27  2  0
 27 28  1  0
 28 29  2  0
 28 30  2  0
 28 31  1  1
 31 32  1  0
 32 33  1  0
 33 34  2  0
 33 38  1  0
 34 35  1  0
 35 36  2  0
 36 37  1  0
 37 38  2  0
M  END
$$$$
