
     RDKit          3D

 38 43  0  0  0  0  0  0  0  0999 V2000
   93.0245   51.5835  268.5076 C   0  0  0  0  0  0  0  0  0  0  0  0
   93.2733   52.7868  269.1336 C   0  0  0  0  0  0  0  0  0  0  0  0
   92.6607   53.4156  270.1583 N   0  0  0  0  0  0  0  0  0  0  0  0
   91.5086   52.9232  270.8886 C   0  0  0  0  0  0  0  0  0  0  0  0
   93.3117   54.5665  270.3690 C   0  0  0  0  0  0  0  0  0  0  0  0
   94.3606   54.6938  269.4748 C   0  0  0  0  0  0  0  0  0  0  0  0
   94.3377   53.5610  268.6870 C   0  0  0  0  0  0  0  0  0  0  0  0
   95.1075   53.1035  267.6370 C   0  0  0  0  0  0  0  0  0  0  0  0
   94.8338   51.8945  267.0303 C   0  0  0  0  0  0  0  0  0  0  0  0
   93.7734   51.1085  267.4648 C   0  0  0  0  0  0  0  0  0  0  0  0
   93.4675   49.8168  266.8287 C   0  0  0  0  0  0  0  0  0  0  0  0
   92.2158   49.5311  266.3361 C   0  0  0  0  0  0  0  0  0  0  0  0
   94.4835   48.8895  266.7390 C   0  0  0  0  0  0  0  0  0  0  0  0
   95.7168   49.1564  267.2179 N   0  0  0  0  0  0  0  0  0  0  0  0
   96.7191   48.2569  267.1359 C   0  0  0  0  0  0  0  0  0  0  0  0
   96.4490   47.0495  266.5460 C   0  0  0  0  0  0  0  0  0  0  0  0
   95.2084   46.7809  266.0642 N   0  0  0  0  0  0  0  0  0  0  0  0
   94.2098   47.6761  266.1454 C   0  0  0  0  0  0  0  0  0  0  0  0
   92.9453   47.3987  265.6529 C   0  0  0  0  0  0  0  0  0  0  0  0
   91.9110   48.3061  265.7281 C   0  0  0  0  0  0  0  0  0  0  0  0
   90.5898   48.0726  265.2686 N   0  0  0  0  0  0  0  0  0  0  0  0
   90.3095   47.1261  264.2650 C   0  0  0  0  0  0  0  0  0  0  0  0
   91.2998   46.3634  263.6640 C   0  0  0  0  0  0  0  0  0  0  0  0
   91.0074   45.4198  262.7087 C   0  0  0  0  0  0  0  0  0  0  0  0
   89.7199   45.2154  262.3304 C   0  0  0  0  0  0  0  0  0  0  0  0
   88.7345   45.9785  262.9315 C   0  0  0  0  0  0  0  0  0  0  0  0
   88.9832   46.9340  263.8911 C   0  0  0  0  0  0  0  0  0  0  0  0
   87.7675   47.8782  264.6453 S   0  0  2  0  0  6  0  0  0  0  0  0
   86.6006   46.9390  264.9631 O   0  0  0  0  0  0  0  0  0  0  0  0
   87.2336   48.9083  263.6880 O   0  0  0  0  0  0  0  0  0  0  0  0
   88.1674   48.6525  266.0870 N   0  0  0  0  0  0  0  0  0  0  0  0
   87.9525   47.9460  267.3015 C   0  0  0  0  0  0  0  0  0  0  0  0
   88.1966   48.8309  268.4674 C   0  0  0  0  0  0  0  0  0  0  0  0
   87.1397   49.5410  268.9783 C   0  0  0  0  0  0  0  0  0  0  0  0
   87.3736   50.3400  270.0392 N   0  0  0  0  0  0  0  0  0  0  0  0
   88.5949   50.4475  270.5882 C   0  0  0  0  0  0  0  0  0  0  0  0
   89.6432   49.7535  270.0940 N   0  0  0  0  0  0  0  0  0  0  0  0
   89.4452   48.9355  269.0221 C   0  0  0  0  0  0  0  0  0  0  0  0
  1  2  2  0
  1 10  1  0
  2  3  1  0
  2  7  1  0
  3  4  1  0
  3  5  1  0
  5  6  2  0
  6  7  1  0
  7  8  2  0
  8  9  1  0
  9 10  2  0
 10 11  1  0
 11 12  2  0
 11 13  1  0
 12 20  1  0
 13 14  2  0
 13 18  1  0
 14 15  1  0
 15 16  2  0
 16 17  1  0
 17 18  2  0
 18 19  1  0
 19 20  2  0
 20 21  1  0
 21 22  1  0
 22 23  2  0
 22 27  1  0
 23 24  1  0
 24 25  2  0
 25 26  1  0
 26 27  2  0
 27 28  1  0
 28 29  2  0
 28 30  2  0
 28 31  1  1
 31 32  1  0
 32 33  1  0
 33 34  2  0
 33 38  1  0
 34 35  1  0
 35 36  2  0
 36 37  1  0
 37 38  2  0
M  END
$$$$
