
     RDKit          3D

 38 43  0  0  0  0  0  0  0  0999 V2000
   93.0564   51.4629  268.7447 C   0  0  0  0  0  0  0  0  0  0  0  0
   93.3165   52.6770  269.3425 C   0  0  0  0  0  0  0  0  0  0  0  0
   92.7473   53.3159  270.4009 N   0  0  0  0  0  0  0  0  0  0  0  0
   91.6454   52.7808  271.1776 C   0  0  0  0  0  0  0  0  0  0  0  0
   93.4036   54.4762  270.5424 C   0  0  0  0  0  0  0  0  0  0  0  0
   94.3853   54.6118  269.6056 C   0  0  0  0  0  0  0  0  0  0  0  0
   94.3338   53.4638  268.8355 C   0  0  0  0  0  0  0  0  0  0  0  0
   95.0650   53.0255  267.7504 C   0  0  0  0  0  0  0  0  0  0  0  0
   94.8108   51.8149  267.1489 C   0  0  0  0  0  0  0  0  0  0  0  0
   93.7844   51.0179  267.6582 C   0  0  0  0  0  0  0  0  0  0  0  0
   93.4595   49.7245  267.0719 C   0  0  0  0  0  0  0  0  0  0  0  0
   92.1677   49.4531  266.6789 C   0  0  0  0  0  0  0  0  0  0  0  0
   94.3924   48.7286  266.8815 C   0  0  0  0  0  0  0  0  0  0  0  0
   95.6676   48.9129  267.2364 N   0  0  0  0  0  0  0  0  0  0  0  0
   96.5887   47.9633  267.0619 C   0  0  0  0  0  0  0  0  0  0  0  0
   96.2497   46.7563  266.5066 C   0  0  0  0  0  0  0  0  0  0  0  0
   94.9768   46.5395  266.1392 N   0  0  0  0  0  0  0  0  0  0  0  0
   94.0616   47.5070  266.3222 C   0  0  0  0  0  0  0  0  0  0  0  0
   92.7739   47.2709  265.9438 C   0  0  0  0  0  0  0  0  0  0  0  0
   91.8165   48.2159  266.1092 C   0  0  0  0  0  0  0  0  0  0  0  0
   90.4766   48.0608  265.7177 N   0  0  0  0  0  0  0  0  0  0  0  0
   90.1128   47.0986  264.7473 C   0  0  0  0  0  0  0  0  0  0  0  0
   91.0133   46.2346  264.1669 C   0  0  0  0  0  0  0  0  0  0  0  0
   90.6425   45.3099  263.2257 C   0  0  0  0  0  0  0  0  0  0  0  0
   89.3245   45.2445  262.8505 C   0  0  0  0  0  0  0  0  0  0  0  0
   88.4237   46.1058  263.4283 C   0  0  0  0  0  0  0  0  0  0  0  0
   88.7783   47.0467  264.3791 C   0  0  0  0  0  0  0  0  0  0  0  0
   87.5308   48.0852  264.9699 S   0  0  2  0  0  6  0  0  0  0  0  0
   86.5203   48.2496  263.8407 O   0  0  0  0  0  0  0  0  0  0  0  0
   88.1008   49.4587  265.1903 O   0  0  0  0  0  0  0  0  0  0  0  0
   86.6888   47.5061  266.3299 N   0  0  0  0  0  0  0  0  0  0  0  0
   87.5736   46.9878  267.3578 C   0  0  0  0  0  0  0  0  0  0  0  0
   87.1569   45.6580  267.8228 C   0  0  0  0  0  0  0  0  0  0  0  0
   87.5923   45.1021  269.0158 C   0  0  0  0  0  0  0  0  0  0  0  0
   87.1751   43.8895  269.3788 N   0  0  0  0  0  0  0  0  0  0  0  0
   86.3333   43.1462  268.6413 C   0  0  0  0  0  0  0  0  0  0  0  0
   85.9053   43.6735  267.4854 N   0  0  0  0  0  0  0  0  0  0  0  0
   86.2875   44.8861  267.0650 C   0  0  0  0  0  0  0  0  0  0  0  0
  1  2  2  0
  1 10  1  0
  2  3  1  0
  2  7  1  0
  4  3  1  6
  3  5  1  0
  5  6  2  0
  6  7  1  0
  7  8  2  0
  8  9  1  0
  9 10  2  0
 10 11  1  0
 11 12  2  0
 11 13  1  0
 12 20  1  0
 13 14  2  0
 13 18  1  0
 14 15  1  0
 15 16  2  0
 16 17  1  0
 17 18  2  0
 18 19  1  0
 19 20  2  0
 20 21  1  0
 21 22  1  0
 22 23  2  0
 22 27  1  0
 23 24  1  0
 24 25  2  0
 25 26  1  0
 26 27  2  0
 27 28  1  0
 28 29  2  0
 28 30  2  0
 28 31  1  1
 32 31  1  1
 32 33  1  0
 33 34  2  0
 33 38  1  0
 34 35  1  0
 35 36  2  0
 36 37  1  0
 37 38  2  0
M  END
$$$$
