
     RDKit          3D

 38 43  0  0  0  0  0  0  0  0999 V2000
   92.3762   51.4416  267.7564 C   0  0  0  0  0  0  0  0  0  0  0  0
   92.5865   52.6545  268.3758 C   0  0  0  0  0  0  0  0  0  0  0  0
   91.7300   53.6062  268.8376 N   0  0  0  0  0  0  0  0  0  0  0  0
   90.2852   53.5101  268.7545 C   0  0  0  0  0  0  0  0  0  0  0  0
   92.4896   54.5843  269.3510 C   0  0  0  0  0  0  0  0  0  0  0  0
   93.8178   54.2968  269.2370 C   0  0  0  0  0  0  0  0  0  0  0  0
   93.8853   53.0636  268.6139 C   0  0  0  0  0  0  0  0  0  0  0  0
   94.9394   52.2593  268.2315 C   0  0  0  0  0  0  0  0  0  0  0  0
   94.7368   51.0476  267.6129 C   0  0  0  0  0  0  0  0  0  0  0  0
   93.4267   50.6315  267.3710 C   0  0  0  0  0  0  0  0  0  0  0  0
   93.1371   49.3606  266.7204 C   0  0  0  0  0  0  0  0  0  0  0  0
   91.8552   49.0783  266.3036 C   0  0  0  0  0  0  0  0  0  0  0  0
   94.0949   48.3972  266.4904 C   0  0  0  0  0  0  0  0  0  0  0  0
   95.3626   48.5939  266.8649 N   0  0  0  0  0  0  0  0  0  0  0  0
   96.3073   47.6756  266.6528 C   0  0  0  0  0  0  0  0  0  0  0  0
   96.0014   46.4892  266.0372 C   0  0  0  0  0  0  0  0  0  0  0  0
   94.7368   46.2607  265.6488 N   0  0  0  0  0  0  0  0  0  0  0  0
   93.7974   47.1965  265.8702 C   0  0  0  0  0  0  0  0  0  0  0  0
   92.5186   46.9489  265.4698 C   0  0  0  0  0  0  0  0  0  0  0  0
   91.5378   47.8622  265.6721 C   0  0  0  0  0  0  0  0  0  0  0  0
   90.2050   47.6948  265.2619 N   0  0  0  0  0  0  0  0  0  0  0  0
   89.8932   46.9526  264.0993 C   0  0  0  0  0  0  0  0  0  0  0  0
   90.5804   47.0829  262.9140 C   0  0  0  0  0  0  0  0  0  0  0  0
   90.2620   46.3563  261.7964 C   0  0  0  0  0  0  0  0  0  0  0  0
   89.2201   45.4665  261.8642 C   0  0  0  0  0  0  0  0  0  0  0  0
   88.5325   45.3344  263.0462 C   0  0  0  0  0  0  0  0  0  0  0  0
   88.8377   46.0593  264.1849 C   0  0  0  0  0  0  0  0  0  0  0  0
   87.8430   45.8078  265.5745 S   0  0  2  0  0  6  0  0  0  0  0  0
   86.5985   45.0667  265.0995 O   0  0  0  0  0  0  0  0  0  0  0  0
   87.3443   47.1379  266.0667 O   0  0  0  0  0  0  0  0  0  0  0  0
   88.5491   44.8805  266.8135 N   0  0  0  0  0  0  0  0  0  0  0  0
   88.5303   45.5556  268.0988 C   0  0  0  0  0  0  0  0  0  0  0  0
   89.5360   45.0111  269.0208 C   0  0  0  0  0  0  0  0  0  0  0  0
   90.0925   45.7474  270.0552 C   0  0  0  0  0  0  0  0  0  0  0  0
   91.0014   45.1921  270.8564 N   0  0  0  0  0  0  0  0  0  0  0  0
   91.4276   43.9249  270.7235 C   0  0  0  0  0  0  0  0  0  0  0  0
   90.8965   43.2029  269.7266 N   0  0  0  0  0  0  0  0  0  0  0  0
   89.9798   43.7029  268.8881 C   0  0  0  0  0  0  0  0  0  0  0  0
  1  2  2  0
  1 10  1  0
  2  3  1  0
  2  7  1  0
  4  3  1  6
  3  5  1  0
  5  6  2  0
  6  7  1  0
  7  8  2  0
  8  9  1  0
  9 10  2  0
 10 11  1  0
 11 12  2  0
 11 13  1  0
 12 20  1  0
 13 14  2  0
 13 18  1  0
 14 15  1  0
 15 16  2  0
 16 17  1  0
 17 18  2  0
 18 19  1  0
 19 20  2  0
 20 21  1  0
 21 22  1  0
 22 23  2  0
 22 27  1  0
 23 24  1  0
 24 25  2  0
 25 26  1  0
 26 27  2  0
 27 28  1  0
 28 29  2  0
 28 30  2  0
 28 31  1  1
 32 31  1  1
 32 33  1  0
 33 34  2  0
 33 38  1  0
 34 35  1  0
 35 36  2  0
 36 37  1  0
 37 38  2  0
M  END
$$$$
