
     RDKit          3D

 38 43  0  0  0  0  0  0  0  0999 V2000
   93.8254   51.7745  267.4060 C   0  0  0  0  0  0  0  0  0  0  0  0
   94.0122   52.9713  268.0652 C   0  0  0  0  0  0  0  0  0  0  0  0
   94.6485   54.1074  267.7119 N   0  0  0  0  0  0  0  0  0  0  0  0
   95.3338   54.3402  266.4553 C   0  0  0  0  0  0  0  0  0  0  0  0
   94.5275   54.9680  268.7306 C   0  0  0  0  0  0  0  0  0  0  0  0
   93.8055   54.3912  269.7612 C   0  0  0  0  0  0  0  0  0  0  0  0
   93.4764   53.1193  269.3392 C   0  0  0  0  0  0  0  0  0  0  0  0
   92.7782   52.0696  269.9008 C   0  0  0  0  0  0  0  0  0  0  0  0
   92.6078   50.8836  269.2161 C   0  0  0  0  0  0  0  0  0  0  0  0
   93.1371   50.7195  267.9418 C   0  0  0  0  0  0  0  0  0  0  0  0
   92.9648   49.4611  267.1979 C   0  0  0  0  0  0  0  0  0  0  0  0
   91.7188   48.9654  266.8930 C   0  0  0  0  0  0  0  0  0  0  0  0
   94.1015   48.7844  266.8100 C   0  0  0  0  0  0  0  0  0  0  0  0
   95.3306   49.2592  267.1022 N   0  0  0  0  0  0  0  0  0  0  0  0
   96.4503   48.6060  266.7279 C   0  0  0  0  0  0  0  0  0  0  0  0
   96.3053   47.4326  266.0345 C   0  0  0  0  0  0  0  0  0  0  0  0
   95.0688   46.9549  265.7405 N   0  0  0  0  0  0  0  0  0  0  0  0
   93.9534   47.6048  266.1128 C   0  0  0  0  0  0  0  0  0  0  0  0
   92.6936   47.1145  265.8113 C   0  0  0  0  0  0  0  0  0  0  0  0
   91.5403   47.7693  266.1853 C   0  0  0  0  0  0  0  0  0  0  0  0
   90.2240   47.3064  265.9318 N   0  0  0  0  0  0  0  0  0  0  0  0
   89.8366   46.8279  264.6660 C   0  0  0  0  0  0  0  0  0  0  0  0
   90.4149   47.2818  263.4898 C   0  0  0  0  0  0  0  0  0  0  0  0
   90.0494   46.7817  262.2632 C   0  0  0  0  0  0  0  0  0  0  0  0
   89.0979   45.8171  262.1812 C   0  0  0  0  0  0  0  0  0  0  0  0
   88.5225   45.3671  263.3564 C   0  0  0  0  0  0  0  0  0  0  0  0
   88.8580   45.8407  264.6048 C   0  0  0  0  0  0  0  0  0  0  0  0
   88.1549   45.2834  266.0654 S   0  0  2  0  0  6  0  0  0  0  0  0
   89.2970   44.7741  266.9491 O   0  0  0  0  0  0  0  0  0  0  0  0
   87.2639   44.1006  265.8012 O   0  0  0  0  0  0  0  0  0  0  0  0
   87.2938   46.3989  266.9886 N   0  0  0  0  0  0  0  0  0  0  0  0
   85.9940   46.7649  266.5449 C   0  0  0  0  0  0  0  0  0  0  0  0
   85.6338   48.1135  267.0486 C   0  0  0  0  0  0  0  0  0  0  0  0
   85.6433   48.3262  268.4040 C   0  0  0  0  0  0  0  0  0  0  0  0
   85.3163   49.5563  268.8494 N   0  0  0  0  0  0  0  0  0  0  0  0
   84.9900   50.5501  268.0066 C   0  0  0  0  0  0  0  0  0  0  0  0
   84.9771   50.3529  266.6703 N   0  0  0  0  0  0  0  0  0  0  0  0
   85.3020   49.1225  266.1828 C   0  0  0  0  0  0  0  0  0  0  0  0
  1  2  2  0
  1 10  1  0
  2  3  1  0
  2  7  1  0
  3  4  1  0
  3  5  1  0
  5  6  2  0
  6  7  1  0
  7  8  2  0
  8  9  1  0
  9 10  2  0
 10 11  1  0
 11 12  2  0
 11 13  1  0
 12 20  1  0
 13 14  2  0
 13 18  1  0
 14 15  1  0
 15 16  2  0
 16 17  1  0
 17 18  2  0
 18 19  1  0
 19 20  2  0
 20 21  1  0
 21 22  1  0
 22 23  2  0
 22 27  1  0
 23 24  1  0
 24 25  2  0
 25 26  1  0
 26 27  2  0
 27 28  1  0
 28 29  2  0
 28 30  2  0
 28 31  1  1
 31 32  1  0
 32 33  1  0
 33 34  2  0
 33 38  1  0
 34 35  1  0
 35 36  2  0
 36 37  1  0
 37 38  2  0
M  END
$$$$
