
     RDKit          3D

 38 43  0  0  0  0  0  0  0  0999 V2000
   92.8772   51.2817  268.8711 C   0  0  0  0  0  0  0  0  0  0  0  0
   93.1589   52.3606  269.6808 C   0  0  0  0  0  0  0  0  0  0  0  0
   92.3611   53.2035  270.3918 N   0  0  0  0  0  0  0  0  0  0  0  0
   90.9142   53.1128  270.4334 C   0  0  0  0  0  0  0  0  0  0  0  0
   93.1769   54.0756  271.0009 C   0  0  0  0  0  0  0  0  0  0  0  0
   94.4847   53.8249  270.7069 C   0  0  0  0  0  0  0  0  0  0  0  0
   94.4788   52.7289  269.8629 C   0  0  0  0  0  0  0  0  0  0  0  0
   95.4826   52.0178  269.2375 C   0  0  0  0  0  0  0  0  0  0  0  0
   95.2086   50.9401  268.4281 C   0  0  0  0  0  0  0  0  0  0  0  0
   93.8770   50.5654  268.2420 C   0  0  0  0  0  0  0  0  0  0  0  0
   93.5127   49.4347  267.3988 C   0  0  0  0  0  0  0  0  0  0  0  0
   92.2043   49.0075  267.3497 C   0  0  0  0  0  0  0  0  0  0  0  0
   94.4233   48.7477  266.6261 C   0  0  0  0  0  0  0  0  0  0  0  0
   95.7126   49.0994  266.6181 N   0  0  0  0  0  0  0  0  0  0  0  0
   96.6126   48.4492  265.8780 C   0  0  0  0  0  0  0  0  0  0  0  0
   96.2365   47.3886  265.0946 C   0  0  0  0  0  0  0  0  0  0  0  0
   94.9486   47.0101  265.0802 N   0  0  0  0  0  0  0  0  0  0  0  0
   94.0550   47.6761  265.8319 C   0  0  0  0  0  0  0  0  0  0  0  0
   92.7516   47.2791  265.8060 C   0  0  0  0  0  0  0  0  0  0  0  0
   91.8151   47.9197  266.5474 C   0  0  0  0  0  0  0  0  0  0  0  0
   90.4496   47.5912  266.5514 N   0  0  0  0  0  0  0  0  0  0  0  0
   89.9500   46.5629  265.7190 C   0  0  0  0  0  0  0  0  0  0  0  0
   90.7590   45.6637  265.0624 C   0  0  0  0  0  0  0  0  0  0  0  0
   90.2565   44.6748  264.2575 C   0  0  0  0  0  0  0  0  0  0  0  0
   88.8968   44.5792  264.1026 C   0  0  0  0  0  0  0  0  0  0  0  0
   88.0870   45.4755  264.7569 C   0  0  0  0  0  0  0  0  0  0  0  0
   88.5748   46.4813  265.5729 C   0  0  0  0  0  0  0  0  0  0  0  0
   87.4223   47.5541  266.2832 S   0  0  2  0  0  6  0  0  0  0  0  0
   87.7606   47.6477  267.7666 O   0  0  0  0  0  0  0  0  0  0  0  0
   86.0621   46.9163  266.2299 O   0  0  0  0  0  0  0  0  0  0  0  0
   87.4225   49.1360  265.6576 N   0  0  0  0  0  0  0  0  0  0  0  0
   88.5085   49.9453  266.1808 C   0  0  0  0  0  0  0  0  0  0  0  0
   88.2167   51.3822  266.0898 C   0  0  0  0  0  0  0  0  0  0  0  0
   86.9283   51.8933  266.0657 C   0  0  0  0  0  0  0  0  0  0  0  0
   86.7334   53.2091  265.9819 N   0  0  0  0  0  0  0  0  0  0  0  0
   87.7355   54.1017  265.9171 C   0  0  0  0  0  0  0  0  0  0  0  0
   88.9860   53.6192  265.9396 N   0  0  0  0  0  0  0  0  0  0  0  0
   89.2479   52.3085  266.0227 C   0  0  0  0  0  0  0  0  0  0  0  0
  1  2  2  0
  1 10  1  0
  2  3  1  0
  2  7  1  0
  4  3  1  6
  3  5  1  0
  5  6  2  0
  6  7  1  0
  7  8  2  0
  8  9  1  0
  9 10  2  0
 10 11  1  0
 11 12  2  0
 11 13  1  0
 12 20  1  0
 13 14  2  0
 13 18  1  0
 14 15  1  0
 15 16  2  0
 16 17  1  0
 17 18  2  0
 18 19  1  0
 19 20  2  0
 20 21  1  0
 21 22  1  0
 22 23  2  0
 22 27  1  0
 23 24  1  0
 24 25  2  0
 25 26  1  0
 26 27  2  0
 27 28  1  0
 28 29  2  0
 28 30  2  0
 28 31  1  6
 32 31  1  1
 32 33  1  0
 33 34  2  0
 33 38  1  0
 34 35  1  0
 35 36  2  0
 36 37  1  0
 37 38  2  0
M  END
$$$$
