
     RDKit          3D

 38 43  0  0  0  0  0  0  0  0999 V2000
   93.0586   51.5549  268.2098 C   0  0  0  0  0  0  0  0  0  0  0  0
   93.3720   52.7786  268.7604 C   0  0  0  0  0  0  0  0  0  0  0  0
   92.7980   53.5073  269.7565 N   0  0  0  0  0  0  0  0  0  0  0  0
   91.6268   53.0864  270.5013 C   0  0  0  0  0  0  0  0  0  0  0  0
   93.5243   54.6279  269.8747 C   0  0  0  0  0  0  0  0  0  0  0  0
   94.5561   54.6503  268.9833 C   0  0  0  0  0  0  0  0  0  0  0  0
   94.4633   53.4698  268.2681 C   0  0  0  0  0  0  0  0  0  0  0  0
   95.2135   52.9290  267.2440 C   0  0  0  0  0  0  0  0  0  0  0  0
   94.9064   51.7081  266.6898 C   0  0  0  0  0  0  0  0  0  0  0  0
   93.8052   51.0076  267.1844 C   0  0  0  0  0  0  0  0  0  0  0  0
   93.4213   49.7096  266.6457 C   0  0  0  0  0  0  0  0  0  0  0  0
   92.1194   49.4847  266.2570 C   0  0  0  0  0  0  0  0  0  0  0  0
   94.3066   48.6643  266.4977 C   0  0  0  0  0  0  0  0  0  0  0  0
   95.5880   48.8015  266.8516 N   0  0  0  0  0  0  0  0  0  0  0  0
   96.4636   47.8035  266.7175 C   0  0  0  0  0  0  0  0  0  0  0  0
   96.0696   46.5937  266.2065 C   0  0  0  0  0  0  0  0  0  0  0  0
   94.7890   46.4235  265.8413 N   0  0  0  0  0  0  0  0  0  0  0  0
   93.9201   47.4393  265.9832 C   0  0  0  0  0  0  0  0  0  0  0  0
   92.6238   47.2500  265.6077 C   0  0  0  0  0  0  0  0  0  0  0  0
   91.7117   48.2448  265.7326 C   0  0  0  0  0  0  0  0  0  0  0  0
   90.3672   48.1383  265.3406 N   0  0  0  0  0  0  0  0  0  0  0  0
   89.9731   47.2074  264.3518 C   0  0  0  0  0  0  0  0  0  0  0  0
   90.7868   46.8228  263.3105 C   0  0  0  0  0  0  0  0  0  0  0  0
   90.3864   45.9207  262.3596 C   0  0  0  0  0  0  0  0  0  0  0  0
   89.1280   45.3819  262.4516 C   0  0  0  0  0  0  0  0  0  0  0  0
   88.3139   45.7641  263.4900 C   0  0  0  0  0  0  0  0  0  0  0  0
   88.6991   46.6739  264.4591 C   0  0  0  0  0  0  0  0  0  0  0  0
   87.5365   47.0818  265.6698 S   0  0  2  0  0  6  0  0  0  0  0  0
   86.2400   46.3736  265.2946 O   0  0  0  0  0  0  0  0  0  0  0  0
   87.2246   48.5492  265.5743 O   0  0  0  0  0  0  0  0  0  0  0  0
   87.9402   46.6057  267.2523 N   0  0  0  0  0  0  0  0  0  0  0  0
   87.6150   45.2161  267.5195 C   0  0  0  0  0  0  0  0  0  0  0  0
   88.5514   44.6057  268.4727 C   0  0  0  0  0  0  0  0  0  0  0  0
   89.6721   45.2613  268.9587 C   0  0  0  0  0  0  0  0  0  0  0  0
   90.4815   44.6492  269.8226 N   0  0  0  0  0  0  0  0  0  0  0  0
   90.2766   43.3983  270.2681 C   0  0  0  0  0  0  0  0  0  0  0  0
   89.1958   42.7542  269.8051 N   0  0  0  0  0  0  0  0  0  0  0  0
   88.3445   43.3140  268.9361 C   0  0  0  0  0  0  0  0  0  0  0  0
  1  2  2  0
  1 10  1  0
  2  3  1  0
  2  7  1  0
  4  3  1  6
  3  5  1  0
  5  6  2  0
  6  7  1  0
  7  8  2  0
  8  9  1  0
  9 10  2  0
 10 11  1  0
 11 12  2  0
 11 13  1  0
 12 20  1  0
 13 14  2  0
 13 18  1  0
 14 15  1  0
 15 16  2  0
 16 17  1  0
 17 18  2  0
 18 19  1  0
 19 20  2  0
 20 21  1  0
 21 22  1  0
 22 23  2  0
 22 27  1  0
 23 24  1  0
 24 25  2  0
 25 26  1  0
 26 27  2  0
 27 28  1  0
 28 29  2  0
 28 30  2  0
 28 31  1  1
 32 31  1  1
 32 33  1  0
 33 34  2  0
 33 38  1  0
 34 35  1  0
 35 36  2  0
 36 37  1  0
 37 38  2  0
M  END
$$$$
