
     RDKit          3D

 38 43  0  0  0  0  0  0  0  0999 V2000
   93.0260   51.3013  268.5387 C   0  0  0  0  0  0  0  0  0  0  0  0
   93.3639   52.5140  269.1014 C   0  0  0  0  0  0  0  0  0  0  0  0
   92.8593   53.1944  270.1517 N   0  0  0  0  0  0  0  0  0  0  0  0
   91.7577   52.7640  270.9910 C   0  0  0  0  0  0  0  0  0  0  0  0
   93.5614   54.3285  270.2693 C   0  0  0  0  0  0  0  0  0  0  0  0
   94.5351   54.3926  269.2876 C   0  0  0  0  0  0  0  0  0  0  0  0
   94.4109   53.2377  268.5427 C   0  0  0  0  0  0  0  0  0  0  0  0
   95.0753   52.7222  267.4484 C   0  0  0  0  0  0  0  0  0  0  0  0
   94.7141   51.5052  266.9073 C   0  0  0  0  0  0  0  0  0  0  0  0
   93.6697   50.7694  267.4540 C   0  0  0  0  0  0  0  0  0  0  0  0
   93.2714   49.4699  266.8889 C   0  0  0  0  0  0  0  0  0  0  0  0
   91.9832   49.2252  266.4745 C   0  0  0  0  0  0  0  0  0  0  0  0
   94.2378   48.4923  266.7849 C   0  0  0  0  0  0  0  0  0  0  0  0
   95.5060   48.7186  267.1875 N   0  0  0  0  0  0  0  0  0  0  0  0
   96.4604   47.7697  267.0908 C   0  0  0  0  0  0  0  0  0  0  0  0
   96.1040   46.5544  266.5664 C   0  0  0  0  0  0  0  0  0  0  0  0
   94.8282   46.3268  266.1614 N   0  0  0  0  0  0  0  0  0  0  0  0
   93.8773   47.2711  266.2574 C   0  0  0  0  0  0  0  0  0  0  0  0
   92.5768   47.0353  265.8434 C   0  0  0  0  0  0  0  0  0  0  0  0
   91.5905   47.9933  265.9346 C   0  0  0  0  0  0  0  0  0  0  0  0
   90.2371   47.8054  265.5547 N   0  0  0  0  0  0  0  0  0  0  0  0
   89.8828   47.0537  264.4185 C   0  0  0  0  0  0  0  0  0  0  0  0
   90.7951   46.7330  263.4241 C   0  0  0  0  0  0  0  0  0  0  0  0
   90.4426   45.9706  262.3366 C   0  0  0  0  0  0  0  0  0  0  0  0
   89.1713   45.5105  262.2154 C   0  0  0  0  0  0  0  0  0  0  0  0
   88.2636   45.8329  263.2087 C   0  0  0  0  0  0  0  0  0  0  0  0
   88.5738   46.5937  264.3134 C   0  0  0  0  0  0  0  0  0  0  0  0
   87.4570   46.9913  265.5514 S   0  0  2  0  0  6  0  0  0  0  0  0
   86.1299   46.3160  265.1943 O   0  0  0  0  0  0  0  0  0  0  0  0
   87.1897   48.4716  265.5617 O   0  0  0  0  0  0  0  0  0  0  0  0
   87.8334   46.5106  267.1216 N   0  0  0  0  0  0  0  0  0  0  0  0
   87.8203   45.1191  267.4107 C   0  0  0  0  0  0  0  0  0  0  0  0
   89.0063   44.7456  268.2206 C   0  0  0  0  0  0  0  0  0  0  0  0
   90.1096   44.2529  267.5706 C   0  0  0  0  0  0  0  0  0  0  0  0
   91.1818   43.9190  268.3170 N   0  0  0  0  0  0  0  0  0  0  0  0
   91.1847   44.0585  269.6531 C   0  0  0  0  0  0  0  0  0  0  0  0
   90.1046   44.5424  270.3043 N   0  0  0  0  0  0  0  0  0  0  0  0
   89.0020   44.8907  269.5832 C   0  0  0  0  0  0  0  0  0  0  0  0
  1  2  2  0
  1 10  1  0
  2  3  1  0
  2  7  1  0
  3  4  1  0
  3  5  1  0
  5  6  2  0
  6  7  1  0
  7  8  2  0
  8  9  1  0
  9 10  2  0
 10 11  1  0
 11 12  2  0
 11 13  1  0
 12 20  1  0
 13 14  2  0
 13 18  1  0
 14 15  1  0
 15 16  2  0
 16 17  1  0
 17 18  2  0
 18 19  1  0
 19 20  2  0
 20 21  1  0
 21 22  1  0
 22 23  2  0
 22 27  1  0
 23 24  1  0
 24 25  2  0
 25 26  1  0
 26 27  2  0
 27 28  1  0
 28 29  2  0
 28 30  2  0
 28 31  1  1
 31 32  1  0
 32 33  1  0
 33 34  2  0
 33 38  1  0
 34 35  1  0
 35 36  2  0
 36 37  1  0
 37 38  2  0
M  END
$$$$
