
     RDKit          3D

 38 43  0  0  0  0  0  0  0  0999 V2000
   93.3041   51.2693  268.7720 C   0  0  0  0  0  0  0  0  0  0  0  0
   93.6605   52.4818  269.3237 C   0  0  0  0  0  0  0  0  0  0  0  0
   93.2074   53.1504  270.4046 N   0  0  0  0  0  0  0  0  0  0  0  0
   92.1574   52.7038  271.2997 C   0  0  0  0  0  0  0  0  0  0  0  0
   93.9038   54.2907  270.4915 C   0  0  0  0  0  0  0  0  0  0  0  0
   94.8218   54.3708  269.4586 C   0  0  0  0  0  0  0  0  0  0  0  0
   94.6683   53.2194  268.7137 C   0  0  0  0  0  0  0  0  0  0  0  0
   95.2770   52.7175  267.5813 C   0  0  0  0  0  0  0  0  0  0  0  0
   94.8985   51.5004  267.0523 C   0  0  0  0  0  0  0  0  0  0  0  0
   93.8927   50.7507  267.6501 C   0  0  0  0  0  0  0  0  0  0  0  0
   93.4767   49.4509  267.0988 C   0  0  0  0  0  0  0  0  0  0  0  0
   92.1534   49.1481  266.8787 C   0  0  0  0  0  0  0  0  0  0  0  0
   94.4629   48.5335  266.8050 C   0  0  0  0  0  0  0  0  0  0  0  0
   95.7655   48.8171  267.0157 N   0  0  0  0  0  0  0  0  0  0  0  0
   96.7395   47.9275  266.7321 C   0  0  0  0  0  0  0  0  0  0  0  0
   96.3670   46.7126  266.2180 C   0  0  0  0  0  0  0  0  0  0  0  0
   95.0566   46.4273  266.0060 N   0  0  0  0  0  0  0  0  0  0  0  0
   94.0862   47.3126  266.2881 C   0  0  0  0  0  0  0  0  0  0  0  0
   92.7504   47.0182  266.0707 C   0  0  0  0  0  0  0  0  0  0  0  0
   91.7435   47.9153  266.3541 C   0  0  0  0  0  0  0  0  0  0  0  0
   90.3586   47.6643  266.1806 N   0  0  0  0  0  0  0  0  0  0  0  0
   89.7502   47.7055  264.9119 C   0  0  0  0  0  0  0  0  0  0  0  0
   90.4840   47.7508  263.7357 C   0  0  0  0  0  0  0  0  0  0  0  0
   89.8766   47.7574  262.5031 C   0  0  0  0  0  0  0  0  0  0  0  0
   88.5226   47.7195  262.4150 C   0  0  0  0  0  0  0  0  0  0  0  0
   87.7936   47.6751  263.5902 C   0  0  0  0  0  0  0  0  0  0  0  0
   88.3609   47.6676  264.8446 C   0  0  0  0  0  0  0  0  0  0  0  0
   87.4650   47.6056  266.3047 S   0  0  2  0  0  6  0  0  0  0  0  0
   86.2339   48.4962  266.1154 O   0  0  0  0  0  0  0  0  0  0  0  0
   88.2561   48.2104  267.4320 O   0  0  0  0  0  0  0  0  0  0  0  0
   86.8968   46.1004  266.8047 N   0  0  0  0  0  0  0  0  0  0  0  0
   87.6298   44.9492  266.4078 C   0  0  0  0  0  0  0  0  0  0  0  0
   88.5253   44.5006  267.5027 C   0  0  0  0  0  0  0  0  0  0  0  0
   88.2583   43.3006  268.1118 C   0  0  0  0  0  0  0  0  0  0  0  0
   89.0805   42.9028  269.1040 N   0  0  0  0  0  0  0  0  0  0  0  0
   90.1296   43.6456  269.4940 C   0  0  0  0  0  0  0  0  0  0  0  0
   90.4025   44.8288  268.9020 N   0  0  0  0  0  0  0  0  0  0  0  0
   89.5936   45.2638  267.8952 C   0  0  0  0  0  0  0  0  0  0  0  0
  1  2  2  0
  1 10  1  0
  2  3  1  0
  2  7  1  0
  3  4  1  0
  3  5  1  0
  5  6  2  0
  6  7  1  0
  7  8  2  0
  8  9  1  0
  9 10  2  0
 10 11  1  0
 11 12  2  0
 11 13  1  0
 12 20  1  0
 13 14  2  0
 13 18  1  0
 14 15  1  0
 15 16  2  0
 16 17  1  0
 17 18  2  0
 18 19  1  0
 19 20  2  0
 20 21  1  0
 21 22  1  0
 22 23  2  0
 22 27  1  0
 23 24  1  0
 24 25  2  0
 25 26  1  0
 26 27  2  0
 27 28  1  0
 28 29  2  0
 28 30  2  0
 28 31  1  1
 31 32  1  0
 32 33  1  0
 33 34  2  0
 33 38  1  0
 34 35  1  0
 35 36  2  0
 36 37  1  0
 37 38  2  0
M  END
$$$$
