
     RDKit          3D

 38 43  0  0  0  0  0  0  0  0999 V2000
   93.0532   51.4685  269.0583 C   0  0  0  0  0  0  0  0  0  0  0  0
   93.3476   52.6783  269.6488 C   0  0  0  0  0  0  0  0  0  0  0  0
   92.8770   53.2865  270.7718 N   0  0  0  0  0  0  0  0  0  0  0  0
   91.8726   52.7136  271.6473 C   0  0  0  0  0  0  0  0  0  0  0  0
   93.5197   54.4591  270.8668 C   0  0  0  0  0  0  0  0  0  0  0  0
   94.3965   54.6326  269.8369 C   0  0  0  0  0  0  0  0  0  0  0  0
   94.2904   53.4965  269.0548 C   0  0  0  0  0  0  0  0  0  0  0  0
   94.9150   53.0929  267.8925 C   0  0  0  0  0  0  0  0  0  0  0  0
   94.6261   51.8868  267.2978 C   0  0  0  0  0  0  0  0  0  0  0  0
   93.6746   51.0582  267.8947 C   0  0  0  0  0  0  0  0  0  0  0  0
   93.3186   49.7674  267.3209 C   0  0  0  0  0  0  0  0  0  0  0  0
   91.9933   49.4223  267.1748 C   0  0  0  0  0  0  0  0  0  0  0  0
   94.2536   48.8453  266.9038 C   0  0  0  0  0  0  0  0  0  0  0  0
   95.5603   49.1037  267.0117 N   0  0  0  0  0  0  0  0  0  0  0  0
   96.4841   48.2264  266.6147 C   0  0  0  0  0  0  0  0  0  0  0  0
   96.1152   47.0197  266.0781 C   0  0  0  0  0  0  0  0  0  0  0  0
   94.8102   46.7295  265.9561 N   0  0  0  0  0  0  0  0  0  0  0  0
   93.8927   47.6247  266.3610 C   0  0  0  0  0  0  0  0  0  0  0  0
   92.5722   47.3146  266.2302 C   0  0  0  0  0  0  0  0  0  0  0  0
   91.6114   48.1852  266.6251 C   0  0  0  0  0  0  0  0  0  0  0  0
   90.2323   47.9527  266.4954 N   0  0  0  0  0  0  0  0  0  0  0  0
   89.6513   46.7571  266.9779 C   0  0  0  0  0  0  0  0  0  0  0  0
   90.3333   45.8453  267.7511 C   0  0  0  0  0  0  0  0  0  0  0  0
   89.7540   44.6902  268.2078 C   0  0  0  0  0  0  0  0  0  0  0  0
   88.4459   44.4360  267.8816 C   0  0  0  0  0  0  0  0  0  0  0  0
   87.7630   45.3446  267.1101 C   0  0  0  0  0  0  0  0  0  0  0  0
   88.3301   46.5156  266.6385 C   0  0  0  0  0  0  0  0  0  0  0  0
   87.3470   47.5262  265.6406 S   0  0  2  0  0  6  0  0  0  0  0  0
   88.1453   48.7975  265.3760 O   0  0  0  0  0  0  0  0  0  0  0  0
   86.1466   47.9726  266.4278 O   0  0  0  0  0  0  0  0  0  0  0  0
   86.9242   46.8642  264.1317 N   0  0  0  0  0  0  0  0  0  0  0  0
   87.6774   47.4445  263.0344 C   0  0  0  0  0  0  0  0  0  0  0  0
   88.9538   46.7508  262.8160 C   0  0  0  0  0  0  0  0  0  0  0  0
   90.0637   47.3652  262.2569 C   0  0  0  0  0  0  0  0  0  0  0  0
   91.1925   46.6775  262.0863 N   0  0  0  0  0  0  0  0  0  0  0  0
   91.3304   45.3863  262.4315 C   0  0  0  0  0  0  0  0  0  0  0  0
   90.2637   44.7815  262.9733 N   0  0  0  0  0  0  0  0  0  0  0  0
   89.1017   45.4173  263.1707 C   0  0  0  0  0  0  0  0  0  0  0  0
  1  2  2  0
  1 10  1  0
  2  3  1  0
  2  7  1  0
  4  3  1  6
  3  5  1  0
  5  6  2  0
  6  7  1  0
  7  8  2  0
  8  9  1  0
  9 10  2  0
 10 11  1  0
 11 12  2  0
 11 13  1  0
 12 20  1  0
 13 14  2  0
 13 18  1  0
 14 15  1  0
 15 16  2  0
 16 17  1  0
 17 18  2  0
 18 19  1  0
 19 20  2  0
 20 21  1  0
 21 22  1  0
 22 23  2  0
 22 27  1  0
 23 24  1  0
 24 25  2  0
 25 26  1  0
 26 27  2  0
 27 28  1  0
 28 29  2  0
 28 30  2  0
 28 31  1  6
 32 31  1  1
 32 33  1  0
 33 34  2  0
 33 38  1  0
 34 35  1  0
 35 36  2  0
 36 37  1  0
 37 38  2  0
M  END
$$$$
