
     RDKit          3D

 38 43  0  0  0  0  0  0  0  0999 V2000
   92.9395   51.0289  268.6971 C   0  0  0  0  0  0  0  0  0  0  0  0
   93.2660   52.2179  269.3125 C   0  0  0  0  0  0  0  0  0  0  0  0
   92.6208   52.9736  270.2426 N   0  0  0  0  0  0  0  0  0  0  0  0
   91.3347   52.6315  270.8192 C   0  0  0  0  0  0  0  0  0  0  0  0
   93.4048   54.0347  270.4805 C   0  0  0  0  0  0  0  0  0  0  0  0
   94.5435   53.9920  269.7313 C   0  0  0  0  0  0  0  0  0  0  0  0
   94.4597   52.8319  268.9824 C   0  0  0  0  0  0  0  0  0  0  0  0
   95.2964   52.2506  268.0517 C   0  0  0  0  0  0  0  0  0  0  0  0
   94.9768   51.0641  267.4337 C   0  0  0  0  0  0  0  0  0  0  0  0
   93.7723   50.4414  267.7646 C   0  0  0  0  0  0  0  0  0  0  0  0
   93.3690   49.1836  267.1501 C   0  0  0  0  0  0  0  0  0  0  0  0
   92.1220   48.6603  267.4105 C   0  0  0  0  0  0  0  0  0  0  0  0
   94.1825   48.4659  266.3007 C   0  0  0  0  0  0  0  0  0  0  0  0
   95.4076   48.9055  265.9974 N   0  0  0  0  0  0  0  0  0  0  0  0
   96.2131   48.2279  265.1774 C   0  0  0  0  0  0  0  0  0  0  0  0
   95.8027   47.0466  264.6151 C   0  0  0  0  0  0  0  0  0  0  0  0
   94.5774   46.5775  264.8996 N   0  0  0  0  0  0  0  0  0  0  0  0
   93.7787   47.2728  265.7277 C   0  0  0  0  0  0  0  0  0  0  0  0
   92.5379   46.7829  266.0061 C   0  0  0  0  0  0  0  0  0  0  0  0
   91.6978   47.4486  266.8357 C   0  0  0  0  0  0  0  0  0  0  0  0
   90.3953   47.0258  267.1473 N   0  0  0  0  0  0  0  0  0  0  0  0
   89.8017   45.9424  266.4591 C   0  0  0  0  0  0  0  0  0  0  0  0
   90.0237   45.6829  265.1258 C   0  0  0  0  0  0  0  0  0  0  0  0
   89.4374   44.6290  264.4748 C   0  0  0  0  0  0  0  0  0  0  0  0
   88.5993   43.8032  265.1804 C   0  0  0  0  0  0  0  0  0  0  0  0
   88.3761   44.0599  266.5113 C   0  0  0  0  0  0  0  0  0  0  0  0
   88.9576   45.1190  267.1862 C   0  0  0  0  0  0  0  0  0  0  0  0
   88.5333   45.3287  268.8474 S   0  0  2  0  0  6  0  0  0  0  0  0
   89.7353   45.9672  269.5338 O   0  0  0  0  0  0  0  0  0  0  0  0
   88.3863   43.9773  269.4894 O   0  0  0  0  0  0  0  0  0  0  0  0
   87.1892   46.3319  269.1315 N   0  0  0  0  0  0  0  0  0  0  0  0
   85.9299   45.6868  268.8060 C   0  0  0  0  0  0  0  0  0  0  0  0
   85.1623   46.4490  267.8120 C   0  0  0  0  0  0  0  0  0  0  0  0
   84.3827   45.8493  266.8350 C   0  0  0  0  0  0  0  0  0  0  0  0
   83.7108   46.6003  265.9628 N   0  0  0  0  0  0  0  0  0  0  0  0
   83.7400   47.9436  265.9679 C   0  0  0  0  0  0  0  0  0  0  0  0
   84.4906   48.5348  266.9082 N   0  0  0  0  0  0  0  0  0  0  0  0
   85.1889   47.8365  267.8127 C   0  0  0  0  0  0  0  0  0  0  0  0
  1  2  2  0
  1 10  1  0
  2  3  1  0
  2  7  1  0
  4  3  1  6
  3  5  1  0
  5  6  2  0
  6  7  1  0
  7  8  2  0
  8  9  1  0
  9 10  2  0
 10 11  1  0
 11 12  2  0
 11 13  1  0
 12 20  1  0
 13 14  2  0
 13 18  1  0
 14 15  1  0
 15 16  2  0
 16 17  1  0
 17 18  2  0
 18 19  1  0
 19 20  2  0
 20 21  1  0
 21 22  1  0
 22 23  2  0
 22 27  1  0
 23 24  1  0
 24 25  2  0
 25 26  1  0
 26 27  2  0
 27 28  1  0
 28 29  2  0
 28 30  2  0
 28 31  1  6
 32 31  1  1
 32 33  1  0
 33 34  2  0
 33 38  1  0
 34 35  1  0
 35 36  2  0
 36 37  1  0
 37 38  2  0
M  END
$$$$
