
     RDKit          3D

 38 43  0  0  0  0  0  0  0  0999 V2000
   92.7435   51.2203  268.3092 C   0  0  0  0  0  0  0  0  0  0  0  0
   93.0882   52.3899  268.9532 C   0  0  0  0  0  0  0  0  0  0  0  0
   92.3533   53.4417  269.3705 N   0  0  0  0  0  0  0  0  0  0  0  0
   90.9181   53.5863  269.2210 C   0  0  0  0  0  0  0  0  0  0  0  0
   93.1920   54.3154  269.9416 C   0  0  0  0  0  0  0  0  0  0  0  0
   94.4885   53.8323  269.8987 C   0  0  0  0  0  0  0  0  0  0  0  0
   94.4244   52.6059  269.2695 C   0  0  0  0  0  0  0  0  0  0  0  0
   95.3585   51.6481  268.9307 C   0  0  0  0  0  0  0  0  0  0  0  0
   94.9828   50.4870  268.2862 C   0  0  0  0  0  0  0  0  0  0  0  0
   93.6512   50.2559  267.9630 C   0  0  0  0  0  0  0  0  0  0  0  0
   93.2336   49.0232  267.2755 C   0  0  0  0  0  0  0  0  0  0  0  0
   91.9266   48.5959  267.2860 C   0  0  0  0  0  0  0  0  0  0  0  0
   94.2013   48.2996  266.6119 C   0  0  0  0  0  0  0  0  0  0  0  0
   95.4878   48.7071  266.5931 N   0  0  0  0  0  0  0  0  0  0  0  0
   96.4437   48.0074  265.9471 C   0  0  0  0  0  0  0  0  0  0  0  0
   96.0695   46.8571  265.3023 C   0  0  0  0  0  0  0  0  0  0  0  0
   94.7753   46.4471  265.3212 N   0  0  0  0  0  0  0  0  0  0  0  0
   93.8229   47.1433  265.9641 C   0  0  0  0  0  0  0  0  0  0  0  0
   92.5036   46.7220  265.9814 C   0  0  0  0  0  0  0  0  0  0  0  0
   91.5153   47.4250  266.6356 C   0  0  0  0  0  0  0  0  0  0  0  0
   90.1546   47.0328  266.7136 N   0  0  0  0  0  0  0  0  0  0  0  0
   89.4749   46.4877  265.6081 C   0  0  0  0  0  0  0  0  0  0  0  0
   89.7752   46.8421  264.3011 C   0  0  0  0  0  0  0  0  0  0  0  0
   89.1253   46.2772  263.2302 C   0  0  0  0  0  0  0  0  0  0  0  0
   88.1603   45.3455  263.4381 C   0  0  0  0  0  0  0  0  0  0  0  0
   87.8627   44.9948  264.7431 C   0  0  0  0  0  0  0  0  0  0  0  0
   88.4879   45.5358  265.8440 C   0  0  0  0  0  0  0  0  0  0  0  0
   88.1298   45.1015  267.4630 S   0  0  2  0  0  6  0  0  0  0  0  0
   89.2085   45.7330  268.3475 O   0  0  0  0  0  0  0  0  0  0  0  0
   88.2497   43.6132  267.6461 O   0  0  0  0  0  0  0  0  0  0  0  0
   86.6456   45.5939  268.0898 N   0  0  0  0  0  0  0  0  0  0  0  0
   86.5476   46.9158  268.6027 C   0  0  0  0  0  0  0  0  0  0  0  0
   85.5270   47.6894  267.8531 C   0  0  0  0  0  0  0  0  0  0  0  0
   85.1135   48.8920  268.3682 C   0  0  0  0  0  0  0  0  0  0  0  0
   84.1873   49.5867  267.6768 N   0  0  0  0  0  0  0  0  0  0  0  0
   83.6773   49.1297  266.5212 C   0  0  0  0  0  0  0  0  0  0  0  0
   84.0764   47.9473  266.0040 N   0  0  0  0  0  0  0  0  0  0  0  0
   85.0112   47.2169  266.6747 C   0  0  0  0  0  0  0  0  0  0  0  0
  1  2  2  0
  1 10  1  0
  2  3  1  0
  2  7  1  0
  3  4  1  0
  3  5  1  0
  5  6  2  0
  6  7  1  0
  7  8  2  0
  8  9  1  0
  9 10  2  0
 10 11  1  0
 11 12  2  0
 11 13  1  0
 12 20  1  0
 13 14  2  0
 13 18  1  0
 14 15  1  0
 15 16  2  0
 16 17  1  0
 17 18  2  0
 18 19  1  0
 19 20  2  0
 20 21  1  0
 21 22  1  0
 22 23  2  0
 22 27  1  0
 23 24  1  0
 24 25  2  0
 25 26  1  0
 26 27  2  0
 27 28  1  0
 28 29  2  0
 28 30  2  0
 28 31  1  1
 31 32  1  0
 32 33  1  0
 33 34  2  0
 33 38  1  0
 34 35  1  0
 35 36  2  0
 36 37  1  0
 37 38  2  0
M  END
$$$$
