
     RDKit          3D

 38 43  0  0  0  0  0  0  0  0999 V2000
   92.2554   51.4156  267.7370 C   0  0  0  0  0  0  0  0  0  0  0  0
   92.4174   52.6385  268.3533 C   0  0  0  0  0  0  0  0  0  0  0  0
   91.5302   53.5737  268.7520 N   0  0  0  0  0  0  0  0  0  0  0  0
   90.0894   53.4921  268.6081 C   0  0  0  0  0  0  0  0  0  0  0  0
   92.2257   54.5787  269.2989 C   0  0  0  0  0  0  0  0  0  0  0  0
   93.5810   54.3003  269.2587 C   0  0  0  0  0  0  0  0  0  0  0  0
   93.7051   53.0648  268.6567 C   0  0  0  0  0  0  0  0  0  0  0  0
   94.7747   52.2550  268.3332 C   0  0  0  0  0  0  0  0  0  0  0  0
   94.5809   51.0358  267.7164 C   0  0  0  0  0  0  0  0  0  0  0  0
   93.3000   50.5951  267.4063 C   0  0  0  0  0  0  0  0  0  0  0  0
   93.0756   49.2976  266.7484 C   0  0  0  0  0  0  0  0  0  0  0  0
   91.8100   48.8057  266.5309 C   0  0  0  0  0  0  0  0  0  0  0  0
   94.1834   48.5801  266.3506 C   0  0  0  0  0  0  0  0  0  0  0  0
   95.4314   49.0507  266.5573 N   0  0  0  0  0  0  0  0  0  0  0  0
   96.5232   48.3576  266.1725 C   0  0  0  0  0  0  0  0  0  0  0  0
   96.3296   47.1475  265.5584 C   0  0  0  0  0  0  0  0  0  0  0  0
   95.0742   46.6740  265.3504 N   0  0  0  0  0  0  0  0  0  0  0  0
   93.9865   47.3636  265.7332 C   0  0  0  0  0  0  0  0  0  0  0  0
   92.7073   46.8775  265.5195 C   0  0  0  0  0  0  0  0  0  0  0  0
   91.5819   47.5727  265.9056 C   0  0  0  0  0  0  0  0  0  0  0  0
   90.2489   47.1177  265.7406 N   0  0  0  0  0  0  0  0  0  0  0  0
   89.8046   46.5435  264.5346 C   0  0  0  0  0  0  0  0  0  0  0  0
   90.2550   46.9737  263.2953 C   0  0  0  0  0  0  0  0  0  0  0  0
   89.8372   46.3817  262.1277 C   0  0  0  0  0  0  0  0  0  0  0  0
   88.9598   45.3468  262.1692 C   0  0  0  0  0  0  0  0  0  0  0  0
   88.5120   44.9207  263.4071 C   0  0  0  0  0  0  0  0  0  0  0  0
   88.9037   45.4852  264.6001 C   0  0  0  0  0  0  0  0  0  0  0  0
   88.3590   44.9585  266.1376 S   0  0  2  0  0  6  0  0  0  0  0  0
   89.6028   44.7194  266.9982 O   0  0  0  0  0  0  0  0  0  0  0  0
   87.6628   43.6302  266.0211 O   0  0  0  0  0  0  0  0  0  0  0  0
   87.3649   46.0024  267.0096 N   0  0  0  0  0  0  0  0  0  0  0  0
   86.1809   46.4723  266.3793 C   0  0  0  0  0  0  0  0  0  0  0  0
   85.7117   47.7245  267.0226 C   0  0  0  0  0  0  0  0  0  0  0  0
   85.0063   48.6224  266.2621 C   0  0  0  0  0  0  0  0  0  0  0  0
   84.5835   49.7556  266.8585 N   0  0  0  0  0  0  0  0  0  0  0  0
   84.8367   50.0107  268.1528 C   0  0  0  0  0  0  0  0  0  0  0  0
   85.5301   49.1343  268.9118 N   0  0  0  0  0  0  0  0  0  0  0  0
   85.9738   47.9779  268.3436 C   0  0  0  0  0  0  0  0  0  0  0  0
  1  2  2  0
  1 10  1  0
  2  3  1  0
  2  7  1  0
  3  4  1  0
  3  5  1  0
  5  6  2  0
  6  7  1  0
  7  8  2  0
  8  9  1  0
  9 10  2  0
 10 11  1  0
 11 12  2  0
 11 13  1  0
 12 20  1  0
 13 14  2  0
 13 18  1  0
 14 15  1  0
 15 16  2  0
 16 17  1  0
 17 18  2  0
 18 19  1  0
 19 20  2  0
 20 21  1  0
 21 22  1  0
 22 23  2  0
 22 27  1  0
 23 24  1  0
 24 25  2  0
 25 26  1  0
 26 27  2  0
 27 28  1  0
 28 29  2  0
 28 30  2  0
 28 31  1  1
 31 32  1  0
 32 33  1  0
 33 34  2  0
 33 38  1  0
 34 35  1  0
 35 36  2  0
 36 37  1  0
 37 38  2  0
M  END
$$$$
