
     RDKit          3D

 38 43  0  0  0  0  0  0  0  0999 V2000
   92.7110   51.7256  267.3994 C   0  0  0  0  0  0  0  0  0  0  0  0
   93.0128   52.9099  268.0380 C   0  0  0  0  0  0  0  0  0  0  0  0
   92.3026   54.0420  268.2245 N   0  0  0  0  0  0  0  0  0  0  0  0
   90.9519   54.2831  267.7550 C   0  0  0  0  0  0  0  0  0  0  0  0
   93.0739   54.8894  268.9173 C   0  0  0  0  0  0  0  0  0  0  0  0
   94.3007   54.3081  269.1876 C   0  0  0  0  0  0  0  0  0  0  0  0
   94.2636   53.0471  268.6283 C   0  0  0  0  0  0  0  0  0  0  0  0
   95.1590   51.9994  268.5568 C   0  0  0  0  0  0  0  0  0  0  0  0
   94.8281   50.8258  267.9104 C   0  0  0  0  0  0  0  0  0  0  0  0
   93.5818   50.6727  267.3152 C   0  0  0  0  0  0  0  0  0  0  0  0
   93.2129   49.4279  266.6216 C   0  0  0  0  0  0  0  0  0  0  0  0
   91.9220   49.1796  266.2177 C   0  0  0  0  0  0  0  0  0  0  0  0
   94.2100   48.5059  266.3848 C   0  0  0  0  0  0  0  0  0  0  0  0
   95.4812   48.7363  266.7754 N   0  0  0  0  0  0  0  0  0  0  0  0
   96.4655   47.8416  266.5492 C   0  0  0  0  0  0  0  0  0  0  0  0
   96.1368   46.6777  265.9042 C   0  0  0  0  0  0  0  0  0  0  0  0
   94.8580   46.4458  265.5112 N   0  0  0  0  0  0  0  0  0  0  0  0
   93.8773   47.3362  265.7361 C   0  0  0  0  0  0  0  0  0  0  0  0
   92.5738   47.0964  265.3339 C   0  0  0  0  0  0  0  0  0  0  0  0
   91.5571   47.9995  265.5564 C   0  0  0  0  0  0  0  0  0  0  0  0
   90.2002   47.8014  265.1949 N   0  0  0  0  0  0  0  0  0  0  0  0
   89.8330   46.9803  264.1120 C   0  0  0  0  0  0  0  0  0  0  0  0
   90.6564   46.7859  263.0128 C   0  0  0  0  0  0  0  0  0  0  0  0
   90.2986   45.9555  261.9780 C   0  0  0  0  0  0  0  0  0  0  0  0
   89.1107   45.2998  262.0154 C   0  0  0  0  0  0  0  0  0  0  0  0
   88.2915   45.4966  263.1130 C   0  0  0  0  0  0  0  0  0  0  0  0
   88.6102   46.3192  264.1700 C   0  0  0  0  0  0  0  0  0  0  0  0
   87.6040   46.5626  265.5362 S   0  0  2  0  0  6  0  0  0  0  0  0
   86.3502   45.7081  265.3298 O   0  0  0  0  0  0  0  0  0  0  0  0
   87.1376   47.9913  265.5968 O   0  0  0  0  0  0  0  0  0  0  0  0
   88.2270   46.1448  267.0447 N   0  0  0  0  0  0  0  0  0  0  0  0
   88.5364   44.7776  267.2794 C   0  0  0  0  0  0  0  0  0  0  0  0
   89.5878   44.6541  268.3193 C   0  0  0  0  0  0  0  0  0  0  0  0
   89.2014   44.6228  269.6354 C   0  0  0  0  0  0  0  0  0  0  0  0
   90.1656   44.5082  270.5710 N   0  0  0  0  0  0  0  0  0  0  0  0
   91.4653   44.4262  270.2410 C   0  0  0  0  0  0  0  0  0  0  0  0
   91.8580   44.4558  268.9488 N   0  0  0  0  0  0  0  0  0  0  0  0
   90.9116   44.5709  267.9752 C   0  0  0  0  0  0  0  0  0  0  0  0
  1  2  2  0
  1 10  1  0
  2  3  1  0
  2  7  1  0
  3  4  1  0
  3  5  1  0
  5  6  2  0
  6  7  1  0
  7  8  2  0
  8  9  1  0
  9 10  2  0
 10 11  1  0
 11 12  2  0
 11 13  1  0
 12 20  1  0
 13 14  2  0
 13 18  1  0
 14 15  1  0
 15 16  2  0
 16 17  1  0
 17 18  2  0
 18 19  1  0
 19 20  2  0
 20 21  1  0
 21 22  1  0
 22 23  2  0
 22 27  1  0
 23 24  1  0
 24 25  2  0
 25 26  1  0
 26 27  2  0
 27 28  1  0
 28 29  2  0
 28 30  2  0
 28 31  1  1
 31 32  1  0
 32 33  1  0
 33 34  2  0
 33 38  1  0
 34 35  1  0
 35 36  2  0
 36 37  1  0
 37 38  2  0
M  END
$$$$
