
     RDKit          3D

 38 43  0  0  0  0  0  0  0  0999 V2000
   92.7854   51.4912  268.4922 C   0  0  0  0  0  0  0  0  0  0  0  0
   93.0259   52.7256  269.0558 C   0  0  0  0  0  0  0  0  0  0  0  0
   92.3970   53.4177  270.0446 N   0  0  0  0  0  0  0  0  0  0  0  0
   91.2347   52.9333  270.7644 C   0  0  0  0  0  0  0  0  0  0  0  0
   93.0632   54.5727  270.1832 C   0  0  0  0  0  0  0  0  0  0  0  0
   94.1093   54.6531  269.3120 C   0  0  0  0  0  0  0  0  0  0  0  0
   94.0900   53.4742  268.5885 C   0  0  0  0  0  0  0  0  0  0  0  0
   94.8859   52.9788  267.5760 C   0  0  0  0  0  0  0  0  0  0  0  0
   94.6517   51.7477  267.0091 C   0  0  0  0  0  0  0  0  0  0  0  0
   93.5782   50.9891  267.4784 C   0  0  0  0  0  0  0  0  0  0  0  0
   93.2707   49.6770  266.9251 C   0  0  0  0  0  0  0  0  0  0  0  0
   91.9875   49.3861  266.5186 C   0  0  0  0  0  0  0  0  0  0  0  0
   94.2125   48.6818  266.7799 C   0  0  0  0  0  0  0  0  0  0  0  0
   95.4804   48.8844  267.1507 N   0  0  0  0  0  0  0  0  0  0  0  0
   96.4097   47.9359  267.0197 C   0  0  0  0  0  0  0  0  0  0  0  0
   96.0872   46.7110  266.4946 C   0  0  0  0  0  0  0  0  0  0  0  0
   94.8220   46.4755  266.1123 N   0  0  0  0  0  0  0  0  0  0  0  0
   93.8983   47.4422  266.2513 C   0  0  0  0  0  0  0  0  0  0  0  0
   92.6186   47.1871  265.8585 C   0  0  0  0  0  0  0  0  0  0  0  0
   91.6531   48.1306  265.9797 C   0  0  0  0  0  0  0  0  0  0  0  0
   90.3210   47.9556  265.5704 N   0  0  0  0  0  0  0  0  0  0  0  0
   90.0132   47.2183  264.4037 C   0  0  0  0  0  0  0  0  0  0  0  0
   90.9248   46.9770  263.4012 C   0  0  0  0  0  0  0  0  0  0  0  0
   90.6073   46.2620  262.2758 C   0  0  0  0  0  0  0  0  0  0  0  0
   89.3336   45.7689  262.1465 C   0  0  0  0  0  0  0  0  0  0  0  0
   88.4218   46.0083  263.1458 C   0  0  0  0  0  0  0  0  0  0  0  0
   88.7224   46.7285  264.2887 C   0  0  0  0  0  0  0  0  0  0  0  0
   87.4464   46.9794  265.4256 S   0  0  2  0  0  6  0  0  0  0  0  0
   86.1662   46.4706  264.7732 O   0  0  0  0  0  0  0  0  0  0  0  0
   87.2352   48.4567  265.6062 O   0  0  0  0  0  0  0  0  0  0  0  0
   87.6247   46.1632  266.9075 N   0  0  0  0  0  0  0  0  0  0  0  0
   87.9396   44.7561  266.7378 C   0  0  0  0  0  0  0  0  0  0  0  0
   88.3179   44.1203  268.0070 C   0  0  0  0  0  0  0  0  0  0  0  0
   88.5079   44.8302  269.1826 C   0  0  0  0  0  0  0  0  0  0  0  0
   88.8509   44.1909  270.3005 N   0  0  0  0  0  0  0  0  0  0  0  0
   89.0306   42.8610  270.3658 C   0  0  0  0  0  0  0  0  0  0  0  0
   88.8496   42.1638  269.2350 N   0  0  0  0  0  0  0  0  0  0  0  0
   88.5047   42.7471  268.0799 C   0  0  0  0  0  0  0  0  0  0  0  0
  1  2  2  0
  1 10  1  0
  2  3  1  0
  2  7  1  0
  4  3  1  6
  3  5  1  0
  5  6  2  0
  6  7  1  0
  7  8  2  0
  8  9  1  0
  9 10  2  0
 10 11  1  0
 11 12  2  0
 11 13  1  0
 12 20  1  0
 13 14  2  0
 13 18  1  0
 14 15  1  0
 15 16  2  0
 16 17  1  0
 17 18  2  0
 18 19  1  0
 19 20  2  0
 20 21  1  0
 21 22  1  0
 22 23  2  0
 22 27  1  0
 23 24  1  0
 24 25  2  0
 25 26  1  0
 26 27  2  0
 27 28  1  0
 28 29  2  0
 28 30  2  0
 28 31  1  1
 32 31  1  1
 32 33  1  0
 33 34  2  0
 33 38  1  0
 34 35  1  0
 35 36  2  0
 36 37  1  0
 37 38  2  0
M  END
$$$$
