
     RDKit          3D

 38 43  0  0  0  0  0  0  0  0999 V2000
   92.5928   51.6436  267.7793 C   0  0  0  0  0  0  0  0  0  0  0  0
   92.9077   52.8025  268.4571 C   0  0  0  0  0  0  0  0  0  0  0  0
   92.1761   53.8912  268.7733 N   0  0  0  0  0  0  0  0  0  0  0  0
   90.7797   54.1002  268.4423 C   0  0  0  0  0  0  0  0  0  0  0  0
   92.9758   54.7310  269.4427 C   0  0  0  0  0  0  0  0  0  0  0  0
   94.2432   54.1884  269.5667 C   0  0  0  0  0  0  0  0  0  0  0  0
   94.2017   52.9600  268.9394 C   0  0  0  0  0  0  0  0  0  0  0  0
   95.1252   51.9569  268.7259 C   0  0  0  0  0  0  0  0  0  0  0  0
   94.7801   50.8079  268.0437 C   0  0  0  0  0  0  0  0  0  0  0  0
   93.4907   50.6351  267.5551 C   0  0  0  0  0  0  0  0  0  0  0  0
   93.1062   49.4160  266.8252 C   0  0  0  0  0  0  0  0  0  0  0  0
   91.8141   49.2004  266.4065 C   0  0  0  0  0  0  0  0  0  0  0  0
   94.0895   48.4845  266.5694 C   0  0  0  0  0  0  0  0  0  0  0  0
   95.3617   48.6829  266.9742 N   0  0  0  0  0  0  0  0  0  0  0  0
   96.3327   47.7785  266.7297 C   0  0  0  0  0  0  0  0  0  0  0  0
   95.9893   46.6383  266.0509 C   0  0  0  0  0  0  0  0  0  0  0  0
   94.7095   46.4386  265.6436 N   0  0  0  0  0  0  0  0  0  0  0  0
   93.7421   47.3387  265.8866 C   0  0  0  0  0  0  0  0  0  0  0  0
   92.4376   47.1316  265.4698 C   0  0  0  0  0  0  0  0  0  0  0  0
   91.4344   48.0451  265.7107 C   0  0  0  0  0  0  0  0  0  0  0  0
   90.0769   47.8795  265.3352 N   0  0  0  0  0  0  0  0  0  0  0  0
   89.6949   47.0084  264.2975 C   0  0  0  0  0  0  0  0  0  0  0  0
   90.5536   46.6577  263.2663 C   0  0  0  0  0  0  0  0  0  0  0  0
   90.1776   45.7803  262.2777 C   0  0  0  0  0  0  0  0  0  0  0  0
   88.9358   45.2324  262.2947 C   0  0  0  0  0  0  0  0  0  0  0  0
   88.0815   45.5850  263.3245 C   0  0  0  0  0  0  0  0  0  0  0  0
   88.4168   46.4597  264.3334 C   0  0  0  0  0  0  0  0  0  0  0  0
   87.3667   46.8959  265.6161 S   0  0  2  0  0  6  0  0  0  0  0  0
   86.1561   47.5933  264.9894 O   0  0  0  0  0  0  0  0  0  0  0  0
   88.0242   47.9109  266.5106 O   0  0  0  0  0  0  0  0  0  0  0  0
   86.7602   45.6547  266.5804 N   0  0  0  0  0  0  0  0  0  0  0  0
   87.4100   44.3919  266.5230 C   0  0  0  0  0  0  0  0  0  0  0  0
   88.1276   44.1189  267.7929 C   0  0  0  0  0  0  0  0  0  0  0  0
   87.4472   44.2813  268.9731 C   0  0  0  0  0  0  0  0  0  0  0  0
   88.1093   44.0280  270.1202 N   0  0  0  0  0  0  0  0  0  0  0  0
   89.3921   43.6294  270.1234 C   0  0  0  0  0  0  0  0  0  0  0  0
   90.0725   43.4660  268.9679 N   0  0  0  0  0  0  0  0  0  0  0  0
   89.4363   43.7125  267.7882 C   0  0  0  0  0  0  0  0  0  0  0  0
  1  2  2  0
  1 10  1  0
  2  3  1  0
  2  7  1  0
  3  4  1  0
  3  5  1  0
  5  6  2  0
  6  7  1  0
  7  8  2  0
  8  9  1  0
  9 10  2  0
 10 11  1  0
 11 12  2  0
 11 13  1  0
 12 20  1  0
 13 14  2  0
 13 18  1  0
 14 15  1  0
 15 16  2  0
 16 17  1  0
 17 18  2  0
 18 19  1  0
 19 20  2  0
 20 21  1  0
 21 22  1  0
 22 23  2  0
 22 27  1  0
 23 24  1  0
 24 25  2  0
 25 26  1  0
 26 27  2  0
 27 28  1  0
 28 29  2  0
 28 30  2  0
 28 31  1  1
 31 32  1  0
 32 33  1  0
 33 34  2  0
 33 38  1  0
 34 35  1  0
 35 36  2  0
 36 37  1  0
 37 38  2  0
M  END
$$$$
