
     RDKit          3D

 38 43  0  0  0  0  0  0  0  0999 V2000
   93.0224   52.1949  267.9914 C   0  0  0  0  0  0  0  0  0  0  0  0
   93.3814   53.3898  268.5786 C   0  0  0  0  0  0  0  0  0  0  0  0
   92.7634   54.5877  268.6401 N   0  0  0  0  0  0  0  0  0  0  0  0
   91.4772   54.9097  268.0528 C   0  0  0  0  0  0  0  0  0  0  0  0
   93.5549   55.4117  269.3383 C   0  0  0  0  0  0  0  0  0  0  0  0
   94.7022   54.7485  269.7383 C   0  0  0  0  0  0  0  0  0  0  0  0
   94.5934   53.4604  269.2553 C   0  0  0  0  0  0  0  0  0  0  0  0
   95.3947   52.3385  269.3177 C   0  0  0  0  0  0  0  0  0  0  0  0
   95.0082   51.1562  268.7198 C   0  0  0  0  0  0  0  0  0  0  0  0
   93.7996   51.0690  268.0395 C   0  0  0  0  0  0  0  0  0  0  0  0
   93.3724   49.8160  267.3960 C   0  0  0  0  0  0  0  0  0  0  0  0
   92.0444   49.5238  267.1909 C   0  0  0  0  0  0  0  0  0  0  0  0
   94.3530   48.9320  266.9992 C   0  0  0  0  0  0  0  0  0  0  0  0
   95.6602   49.2057  267.1939 N   0  0  0  0  0  0  0  0  0  0  0  0
   96.6288   48.3485  266.8100 C   0  0  0  0  0  0  0  0  0  0  0  0
   96.2460   47.1774  266.2093 C   0  0  0  0  0  0  0  0  0  0  0  0
   94.9309   46.9020  266.0134 N   0  0  0  0  0  0  0  0  0  0  0  0
   93.9659   47.7551  266.3954 C   0  0  0  0  0  0  0  0  0  0  0  0
   92.6253   47.4708  266.1940 C   0  0  0  0  0  0  0  0  0  0  0  0
   91.6239   48.3354  266.5795 C   0  0  0  0  0  0  0  0  0  0  0  0
   90.2354   48.0906  266.4268 N   0  0  0  0  0  0  0  0  0  0  0  0
   89.6296   46.9195  266.9199 C   0  0  0  0  0  0  0  0  0  0  0  0
   90.2465   46.0985  267.8523 C   0  0  0  0  0  0  0  0  0  0  0  0
   89.6292   44.9758  268.3492 C   0  0  0  0  0  0  0  0  0  0  0  0
   88.3820   44.6457  267.9272 C   0  0  0  0  0  0  0  0  0  0  0  0
   87.7699   45.4664  266.9965 C   0  0  0  0  0  0  0  0  0  0  0  0
   88.3518   46.5988  266.4725 C   0  0  0  0  0  0  0  0  0  0  0  0
   87.5973   47.6243  265.3248 S   0  0  2  0  0  6  0  0  0  0  0  0
   87.9215   49.0657  265.7272 O   0  0  0  0  0  0  0  0  0  0  0  0
   86.1012   47.4889  265.4034 O   0  0  0  0  0  0  0  0  0  0  0  0
   88.0596   47.4599  263.7131 N   0  0  0  0  0  0  0  0  0  0  0  0
   88.5045   46.1822  263.2775 C   0  0  0  0  0  0  0  0  0  0  0  0
   89.9265   46.2428  262.8574 C   0  0  0  0  0  0  0  0  0  0  0  0
   90.8762   45.7166  263.6962 C   0  0  0  0  0  0  0  0  0  0  0  0
   92.1646   45.7757  263.3024 N   0  0  0  0  0  0  0  0  0  0  0  0
   92.5217   46.3280  262.1311 C   0  0  0  0  0  0  0  0  0  0  0  0
   91.5958   46.8493  261.2969 N   0  0  0  0  0  0  0  0  0  0  0  0
   90.2833   46.8079  261.6610 C   0  0  0  0  0  0  0  0  0  0  0  0
  1  2  2  0
  1 10  1  0
  2  3  1  0
  2  7  1  0
  3  4  1  0
  3  5  1  0
  5  6  2  0
  6  7  1  0
  7  8  2  0
  8  9  1  0
  9 10  2  0
 10 11  1  0
 11 12  2  0
 11 13  1  0
 12 20  1  0
 13 14  2  0
 13 18  1  0
 14 15  1  0
 15 16  2  0
 16 17  1  0
 17 18  2  0
 18 19  1  0
 19 20  2  0
 20 21  1  0
 21 22  1  0
 22 23  2  0
 22 27  1  0
 23 24  1  0
 24 25  2  0
 25 26  1  0
 26 27  2  0
 27 28  1  0
 28 29  2  0
 28 30  2  0
 28 31  1  6
 31 32  1  0
 32 33  1  0
 33 34  2  0
 33 38  1  0
 34 35  1  0
 35 36  2  0
 36 37  1  0
 37 38  2  0
M  END
$$$$
