
     RDKit          3D

 38 43  0  0  0  0  0  0  0  0999 V2000
   92.5633   51.3478  267.3045 C   0  0  0  0  0  0  0  0  0  0  0  0
   92.6756   52.5554  267.9588 C   0  0  0  0  0  0  0  0  0  0  0  0
   91.8533   53.6376  268.0287 N   0  0  0  0  0  0  0  0  0  0  0  0
   90.5714   53.7303  267.3567 C   0  0  0  0  0  0  0  0  0  0  0  0
   92.4698   54.5335  268.8125 C   0  0  0  0  0  0  0  0  0  0  0  0
   93.6716   54.0656  269.2558 C   0  0  0  0  0  0  0  0  0  0  0  0
   93.8081   52.8007  268.7127 C   0  0  0  0  0  0  0  0  0  0  0  0
   94.7975   51.8425  268.7971 C   0  0  0  0  0  0  0  0  0  0  0  0
   94.6920   50.6351  268.1467 C   0  0  0  0  0  0  0  0  0  0  0  0
   93.5499   50.3841  267.3846 C   0  0  0  0  0  0  0  0  0  0  0  0
   93.3704   49.1280  266.6690 C   0  0  0  0  0  0  0  0  0  0  0  0
   92.1080   48.5997  266.5139 C   0  0  0  0  0  0  0  0  0  0  0  0
   94.4165   48.4167  266.1228 C   0  0  0  0  0  0  0  0  0  0  0  0
   95.6721   48.8613  266.2300 N   0  0  0  0  0  0  0  0  0  0  0  0
   96.7011   48.1899  265.7094 C   0  0  0  0  0  0  0  0  0  0  0  0
   96.4977   47.0100  265.0412 C   0  0  0  0  0  0  0  0  0  0  0  0
   95.2479   46.5360  264.9160 N   0  0  0  0  0  0  0  0  0  0  0  0
   94.2229   47.2251  265.4465 C   0  0  0  0  0  0  0  0  0  0  0  0
   92.9605   46.7301  265.3106 C   0  0  0  0  0  0  0  0  0  0  0  0
   91.8958   47.3895  265.8292 C   0  0  0  0  0  0  0  0  0  0  0  0
   90.5640   46.9614  265.7050 N   0  0  0  0  0  0  0  0  0  0  0  0
   90.1154   46.3242  264.5250 C   0  0  0  0  0  0  0  0  0  0  0  0
   90.4814   46.7308  263.2621 C   0  0  0  0  0  0  0  0  0  0  0  0
   90.0344   46.1020  262.1294 C   0  0  0  0  0  0  0  0  0  0  0  0
   89.1917   45.0275  262.2617 C   0  0  0  0  0  0  0  0  0  0  0  0
   88.8250   44.6196  263.5211 C   0  0  0  0  0  0  0  0  0  0  0  0
   89.2645   45.2415  264.6766 C   0  0  0  0  0  0  0  0  0  0  0  0
   88.6697   44.6325  266.1796 S   0  0  2  0  0  6  0  0  0  0  0  0
   89.8744   44.1084  266.9525 O   0  0  0  0  0  0  0  0  0  0  0  0
   87.8166   43.4234  265.9146 O   0  0  0  0  0  0  0  0  0  0  0  0
   87.8866   45.7757  267.1663 N   0  0  0  0  0  0  0  0  0  0  0  0
   86.4474   45.7886  266.9750 C   0  0  0  0  0  0  0  0  0  0  0  0
   85.7805   46.7324  267.8821 C   0  0  0  0  0  0  0  0  0  0  0  0
   85.8222   46.6137  269.2627 C   0  0  0  0  0  0  0  0  0  0  0  0
   85.1946   47.5056  270.0288 N   0  0  0  0  0  0  0  0  0  0  0  0
   84.5017   48.5457  269.5356 C   0  0  0  0  0  0  0  0  0  0  0  0
   84.4543   48.6709  268.2017 N   0  0  0  0  0  0  0  0  0  0  0  0
   85.0636   47.8084  267.3780 C   0  0  0  0  0  0  0  0  0  0  0  0
  1  2  2  0
  1 10  1  0
  2  3  1  0
  2  7  1  0
  4  3  1  6
  3  5  1  0
  5  6  2  0
  6  7  1  0
  7  8  2  0
  8  9  1  0
  9 10  2  0
 10 11  1  0
 11 12  2  0
 11 13  1  0
 12 20  1  0
 13 14  2  0
 13 18  1  0
 14 15  1  0
 15 16  2  0
 16 17  1  0
 17 18  2  0
 18 19  1  0
 19 20  2  0
 20 21  1  0
 21 22  1  0
 22 23  2  0
 22 27  1  0
 23 24  1  0
 24 25  2  0
 25 26  1  0
 26 27  2  0
 27 28  1  0
 28 29  2  0
 28 30  2  0
 28 31  1  1
 32 31  1  1
 32 33  1  0
 33 34  2  0
 33 38  1  0
 34 35  1  0
 35 36  2  0
 36 37  1  0
 37 38  2  0
M  END
$$$$
