
     RDKit          3D

 38 43  0  0  0  0  0  0  0  0999 V2000
   92.6260   51.4297  268.0715 C   0  0  0  0  0  0  0  0  0  0  0  0
   92.8186   52.6324  268.7160 C   0  0  0  0  0  0  0  0  0  0  0  0
   91.9639   53.4694  269.3651 N   0  0  0  0  0  0  0  0  0  0  0  0
   90.5421   53.2248  269.5144 C   0  0  0  0  0  0  0  0  0  0  0  0
   92.7003   54.5009  269.8019 C   0  0  0  0  0  0  0  0  0  0  0  0
   94.0118   54.3599  269.4557 C   0  0  0  0  0  0  0  0  0  0  0  0
   94.0929   53.1664  268.7610 C   0  0  0  0  0  0  0  0  0  0  0  0
   95.1406   52.4936  268.1661 C   0  0  0  0  0  0  0  0  0  0  0  0
   94.9555   51.2929  267.5212 C   0  0  0  0  0  0  0  0  0  0  0  0
   93.6702   50.7509  267.4738 C   0  0  0  0  0  0  0  0  0  0  0  0
   93.4001   49.4835  266.8083 C   0  0  0  0  0  0  0  0  0  0  0  0
   92.1003   49.0665  266.6257 C   0  0  0  0  0  0  0  0  0  0  0  0
   94.3941   48.6537  266.3374 C   0  0  0  0  0  0  0  0  0  0  0  0
   95.6812   48.9859  266.4756 N   0  0  0  0  0  0  0  0  0  0  0  0
   96.6610   48.1986  266.0276 C   0  0  0  0  0  0  0  0  0  0  0  0
   96.3726   47.0115  265.4051 C   0  0  0  0  0  0  0  0  0  0  0  0
   95.0893   46.6486  265.2505 N   0  0  0  0  0  0  0  0  0  0  0  0
   94.1146   47.4537  265.7076 C   0  0  0  0  0  0  0  0  0  0  0  0
   92.8172   47.0707  265.5428 C   0  0  0  0  0  0  0  0  0  0  0  0
   91.8008   47.8492  265.9877 C   0  0  0  0  0  0  0  0  0  0  0  0
   90.4401   47.5396  265.8288 N   0  0  0  0  0  0  0  0  0  0  0  0
   89.9956   46.7761  264.7247 C   0  0  0  0  0  0  0  0  0  0  0  0
   90.4260   46.9925  263.4354 C   0  0  0  0  0  0  0  0  0  0  0  0
   89.9819   46.2435  262.3770 C   0  0  0  0  0  0  0  0  0  0  0  0
   89.0755   45.2413  262.6140 C   0  0  0  0  0  0  0  0  0  0  0  0
   88.6443   45.0232  263.8999 C   0  0  0  0  0  0  0  0  0  0  0  0
   89.0798   45.7688  264.9814 C   0  0  0  0  0  0  0  0  0  0  0  0
   88.4015   45.3958  266.5256 S   0  0  2  0  0  6  0  0  0  0  0  0
   89.5683   45.1102  267.4640 O   0  0  0  0  0  0  0  0  0  0  0  0
   87.6483   44.0984  266.4289 O   0  0  0  0  0  0  0  0  0  0  0  0
   87.4718   46.6353  267.2277 N   0  0  0  0  0  0  0  0  0  0  0  0
   86.0675   46.5548  266.8677 C   0  0  0  0  0  0  0  0  0  0  0  0
   85.3545   47.8076  267.1508 C   0  0  0  0  0  0  0  0  0  0  0  0
   83.9830   47.9480  267.0049 C   0  0  0  0  0  0  0  0  0  0  0  0
   83.3983   49.1138  267.2793 N   0  0  0  0  0  0  0  0  0  0  0  0
   84.0719   50.1970  267.7015 C   0  0  0  0  0  0  0  0  0  0  0  0
   85.3988   50.0732  267.8464 N   0  0  0  0  0  0  0  0  0  0  0  0
   86.0453   48.9293  267.5872 C   0  0  0  0  0  0  0  0  0  0  0  0
  1  2  2  0
  1 10  1  0
  2  3  1  0
  2  7  1  0
  4  3  1  6
  3  5  1  0
  5  6  2  0
  6  7  1  0
  7  8  2  0
  8  9  1  0
  9 10  2  0
 10 11  1  0
 11 12  2  0
 11 13  1  0
 12 20  1  0
 13 14  2  0
 13 18  1  0
 14 15  1  0
 15 16  2  0
 16 17  1  0
 17 18  2  0
 18 19  1  0
 19 20  2  0
 20 21  1  0
 21 22  1  0
 22 23  2  0
 22 27  1  0
 23 24  1  0
 24 25  2  0
 25 26  1  0
 26 27  2  0
 27 28  1  0
 28 29  2  0
 28 30  2  0
 28 31  1  1
 32 31  1  1
 32 33  1  0
 33 34  2  0
 33 38  1  0
 34 35  1  0
 35 36  2  0
 36 37  1  0
 37 38  2  0
M  END
$$$$
