
     RDKit          3D

 38 43  0  0  0  0  0  0  0  0999 V2000
   92.8301   51.2915  268.5190 C   0  0  0  0  0  0  0  0  0  0  0  0
   93.0511   52.5218  269.0992 C   0  0  0  0  0  0  0  0  0  0  0  0
   92.4600   53.1582  270.1471 N   0  0  0  0  0  0  0  0  0  0  0  0
   91.3737   52.6008  270.9298 C   0  0  0  0  0  0  0  0  0  0  0  0
   93.0798   54.3403  270.2725 C   0  0  0  0  0  0  0  0  0  0  0  0
   94.0588   54.4925  269.3354 C   0  0  0  0  0  0  0  0  0  0  0  0
   94.0446   53.3322  268.5823 C   0  0  0  0  0  0  0  0  0  0  0  0
   94.7914   52.9008  267.5051 C   0  0  0  0  0  0  0  0  0  0  0  0
   94.5762   51.6741  266.9212 C   0  0  0  0  0  0  0  0  0  0  0  0
   93.5739   50.8533  267.4405 C   0  0  0  0  0  0  0  0  0  0  0  0
   93.2905   49.5420  266.8729 C   0  0  0  0  0  0  0  0  0  0  0  0
   91.9985   49.2030  266.5374 C   0  0  0  0  0  0  0  0  0  0  0  0
   94.2640   48.5939  266.6452 C   0  0  0  0  0  0  0  0  0  0  0  0
   95.5423   48.8448  266.9437 N   0  0  0  0  0  0  0  0  0  0  0  0
   96.5023   47.9425  266.7321 C   0  0  0  0  0  0  0  0  0  0  0  0
   96.2018   46.7169  266.1959 C   0  0  0  0  0  0  0  0  0  0  0  0
   94.9269   46.4335  265.8849 N   0  0  0  0  0  0  0  0  0  0  0  0
   93.9722   47.3540  266.1046 C   0  0  0  0  0  0  0  0  0  0  0  0
   92.6831   47.0506  265.7833 C   0  0  0  0  0  0  0  0  0  0  0  0
   91.6866   47.9465  265.9873 C   0  0  0  0  0  0  0  0  0  0  0  0
   90.3408   47.7211  265.6549 N   0  0  0  0  0  0  0  0  0  0  0  0
   89.9934   47.0327  264.4695 C   0  0  0  0  0  0  0  0  0  0  0  0
   90.7547   47.0719  263.3235 C   0  0  0  0  0  0  0  0  0  0  0  0
   90.4005   46.3998  262.1829 C   0  0  0  0  0  0  0  0  0  0  0  0
   89.2447   45.6608  262.1860 C   0  0  0  0  0  0  0  0  0  0  0  0
   88.4831   45.6199  263.3286 C   0  0  0  0  0  0  0  0  0  0  0  0
   88.8229   46.2920  264.4897 C   0  0  0  0  0  0  0  0  0  0  0  0
   87.7299   46.1742  265.8221 S   0  0  2  0  0  6  0  0  0  0  0  0
   88.2597   45.0726  266.7327 O   0  0  0  0  0  0  0  0  0  0  0  0
   86.4043   45.6692  265.3246 O   0  0  0  0  0  0  0  0  0  0  0  0
   87.5765   47.5845  266.7609 N   0  0  0  0  0  0  0  0  0  0  0  0
   86.2569   48.1822  266.6624 C   0  0  0  0  0  0  0  0  0  0  0  0
   86.2738   49.6113  267.0023 C   0  0  0  0  0  0  0  0  0  0  0  0
   85.1343   50.4009  267.0121 C   0  0  0  0  0  0  0  0  0  0  0  0
   85.2197   51.6923  267.3301 N   0  0  0  0  0  0  0  0  0  0  0  0
   86.3743   52.2992  267.6523 C   0  0  0  0  0  0  0  0  0  0  0  0
   87.4830   51.5457  267.6462 N   0  0  0  0  0  0  0  0  0  0  0  0
   87.4636   50.2431  267.3358 C   0  0  0  0  0  0  0  0  0  0  0  0
  1  2  2  0
  1 10  1  0
  2  3  1  0
  2  7  1  0
  4  3  1  6
  3  5  1  0
  5  6  2  0
  6  7  1  0
  7  8  2  0
  8  9  1  0
  9 10  2  0
 10 11  1  0
 11 12  2  0
 11 13  1  0
 12 20  1  0
 13 14  2  0
 13 18  1  0
 14 15  1  0
 15 16  2  0
 16 17  1  0
 17 18  2  0
 18 19  1  0
 19 20  2  0
 20 21  1  0
 21 22  1  0
 22 23  2  0
 22 27  1  0
 23 24  1  0
 24 25  2  0
 25 26  1  0
 26 27  2  0
 27 28  1  0
 28 29  2  0
 28 30  2  0
 28 31  1  1
 32 31  1  1
 32 33  1  0
 33 34  2  0
 33 38  1  0
 34 35  1  0
 35 36  2  0
 36 37  1  0
 37 38  2  0
M  END
$$$$
