
     RDKit          3D

 38 43  0  0  0  0  0  0  0  0999 V2000
   93.0767   51.3791  268.4551 C   0  0  0  0  0  0  0  0  0  0  0  0
   93.3649   52.6174  268.9866 C   0  0  0  0  0  0  0  0  0  0  0  0
   92.8702   53.2886  270.0623 N   0  0  0  0  0  0  0  0  0  0  0  0
   91.8394   52.7702  270.9412 C   0  0  0  0  0  0  0  0  0  0  0  0
   93.5191   54.4607  270.1104 C   0  0  0  0  0  0  0  0  0  0  0  0
   94.4233   54.5726  269.0957 C   0  0  0  0  0  0  0  0  0  0  0  0
   94.3287   53.3963  268.3739 C   0  0  0  0  0  0  0  0  0  0  0  0
   94.9799   52.9263  267.2518 C   0  0  0  0  0  0  0  0  0  0  0  0
   94.6972   51.6915  266.7160 C   0  0  0  0  0  0  0  0  0  0  0  0
   93.7246   50.9024  267.3320 C   0  0  0  0  0  0  0  0  0  0  0  0
   93.3737   49.5845  266.8199 C   0  0  0  0  0  0  0  0  0  0  0  0
   92.0525   49.2593  266.6070 C   0  0  0  0  0  0  0  0  0  0  0  0
   94.3099   48.6168  266.5274 C   0  0  0  0  0  0  0  0  0  0  0  0
   95.6130   48.8533  266.7065 N   0  0  0  0  0  0  0  0  0  0  0  0
   96.5377   47.9318  266.4304 C   0  0  0  0  0  0  0  0  0  0  0  0
   96.1738   46.7006  265.9491 C   0  0  0  0  0  0  0  0  0  0  0  0
   94.8725   46.4313  265.7580 N   0  0  0  0  0  0  0  0  0  0  0  0
   93.9540   47.3711  266.0414 C   0  0  0  0  0  0  0  0  0  0  0  0
   92.6374   47.0817  265.8418 C   0  0  0  0  0  0  0  0  0  0  0  0
   91.6756   47.9972  266.1137 C   0  0  0  0  0  0  0  0  0  0  0  0
   90.3026   47.7865  265.9063 N   0  0  0  0  0  0  0  0  0  0  0  0
   89.8500   46.8913  264.9096 C   0  0  0  0  0  0  0  0  0  0  0  0
   90.3601   46.8645  263.6316 C   0  0  0  0  0  0  0  0  0  0  0  0
   89.9069   45.9909  262.6777 C   0  0  0  0  0  0  0  0  0  0  0  0
   88.9085   45.1112  263.0117 C   0  0  0  0  0  0  0  0  0  0  0  0
   88.3977   45.1358  264.2866 C   0  0  0  0  0  0  0  0  0  0  0  0
   88.8408   46.0105  265.2633 C   0  0  0  0  0  0  0  0  0  0  0  0
   88.0583   45.9429  266.8017 S   0  0  2  0  0  6  0  0  0  0  0  0
   89.1340   46.1773  267.8559 O   0  0  0  0  0  0  0  0  0  0  0  0
   87.5714   44.5411  267.0420 O   0  0  0  0  0  0  0  0  0  0  0  0
   86.8397   47.1042  267.0470 N   0  0  0  0  0  0  0  0  0  0  0  0
   85.7283   46.9534  266.1250 C   0  0  0  0  0  0  0  0  0  0  0  0
   84.6655   46.1039  266.6790 C   0  0  0  0  0  0  0  0  0  0  0  0
   83.9654   46.4224  267.8325 C   0  0  0  0  0  0  0  0  0  0  0  0
   83.0119   45.6066  268.2814 N   0  0  0  0  0  0  0  0  0  0  0  0
   82.6732   44.4590  267.6703 C   0  0  0  0  0  0  0  0  0  0  0  0
   83.3434   44.1405  266.5538 N   0  0  0  0  0  0  0  0  0  0  0  0
   84.3117   44.9176  266.0518 C   0  0  0  0  0  0  0  0  0  0  0  0
  1  2  2  0
  1 10  1  0
  2  3  1  0
  2  7  1  0
  4  3  1  6
  3  5  1  0
  5  6  2  0
  6  7  1  0
  7  8  2  0
  8  9  1  0
  9 10  2  0
 10 11  1  0
 11 12  2  0
 11 13  1  0
 12 20  1  0
 13 14  2  0
 13 18  1  0
 14 15  1  0
 15 16  2  0
 16 17  1  0
 17 18  2  0
 18 19  1  0
 19 20  2  0
 20 21  1  0
 21 22  1  0
 22 23  2  0
 22 27  1  0
 23 24  1  0
 24 25  2  0
 25 26  1  0
 26 27  2  0
 27 28  1  0
 28 29  2  0
 28 30  2  0
 28 31  1  6
 32 31  1  1
 32 33  1  0
 33 34  2  0
 33 38  1  0
 34 35  1  0
 35 36  2  0
 36 37  1  0
 37 38  2  0
M  END
$$$$
