
     RDKit          3D

 38 43  0  0  0  0  0  0  0  0999 V2000
   93.1709   51.2080  268.4568 C   0  0  0  0  0  0  0  0  0  0  0  0
   93.3741   52.5156  268.8411 C   0  0  0  0  0  0  0  0  0  0  0  0
   92.9218   53.2378  269.9024 N   0  0  0  0  0  0  0  0  0  0  0  0
   92.0503   52.7091  270.9343 C   0  0  0  0  0  0  0  0  0  0  0  0
   93.4390   54.4678  269.7734 C   0  0  0  0  0  0  0  0  0  0  0  0
   94.2161   54.5680  268.6573 C   0  0  0  0  0  0  0  0  0  0  0  0
   94.1780   53.3221  268.0573 C   0  0  0  0  0  0  0  0  0  0  0  0
   94.7581   52.8101  266.9147 C   0  0  0  0  0  0  0  0  0  0  0  0
   94.5596   51.5060  266.5253 C   0  0  0  0  0  0  0  0  0  0  0  0
   93.7485   50.6889  267.3142 C   0  0  0  0  0  0  0  0  0  0  0  0
   93.4941   49.2982  266.9632 C   0  0  0  0  0  0  0  0  0  0  0  0
   92.2081   48.8062  266.9922 C   0  0  0  0  0  0  0  0  0  0  0  0
   94.4902   48.4208  266.5937 C   0  0  0  0  0  0  0  0  0  0  0  0
   95.7645   48.8199  266.5409 N   0  0  0  0  0  0  0  0  0  0  0  0
   96.7460   47.9885  266.1859 C   0  0  0  0  0  0  0  0  0  0  0  0
   96.4725   46.6848  265.8610 C   0  0  0  0  0  0  0  0  0  0  0  0
   95.2023   46.2523  265.9041 N   0  0  0  0  0  0  0  0  0  0  0  0
   94.2257   47.1032  266.2638 C   0  0  0  0  0  0  0  0  0  0  0  0
   92.9417   46.6484  266.3025 C   0  0  0  0  0  0  0  0  0  0  0  0
   91.9240   47.4693  266.6598 C   0  0  0  0  0  0  0  0  0  0  0  0
   90.5736   47.0852  266.6942 N   0  0  0  0  0  0  0  0  0  0  0  0
   90.1390   46.0422  267.5444 C   0  0  0  0  0  0  0  0  0  0  0  0
   90.9971   45.2856  268.3097 C   0  0  0  0  0  0  0  0  0  0  0  0
   90.5576   44.2766  269.1264 C   0  0  0  0  0  0  0  0  0  0  0  0
   89.2123   44.0134  269.1823 C   0  0  0  0  0  0  0  0  0  0  0  0
   88.3537   44.7671  268.4195 C   0  0  0  0  0  0  0  0  0  0  0  0
   88.7777   45.7891  267.5882 C   0  0  0  0  0  0  0  0  0  0  0  0
   87.5722   46.6074  266.6603 S   0  0  2  0  0  6  0  0  0  0  0  0
   86.2647   46.4940  267.4355 O   0  0  0  0  0  0  0  0  0  0  0  0
   87.3390   45.8492  265.3834 O   0  0  0  0  0  0  0  0  0  0  0  0
   87.8645   48.2611  266.3891 N   0  0  0  0  0  0  0  0  0  0  0  0
   88.0595   48.5726  264.9844 C   0  0  0  0  0  0  0  0  0  0  0  0
   88.2127   50.0159  264.7574 C   0  0  0  0  0  0  0  0  0  0  0  0
   88.1719   50.9518  265.7793 C   0  0  0  0  0  0  0  0  0  0  0  0
   88.3180   52.2476  265.5041 N   0  0  0  0  0  0  0  0  0  0  0  0
   88.5084   52.7222  264.2617 C   0  0  0  0  0  0  0  0  0  0  0  0
   88.5497   51.8265  263.2651 N   0  0  0  0  0  0  0  0  0  0  0  0
   88.4096   50.5115  263.4761 C   0  0  0  0  0  0  0  0  0  0  0  0
  1  2  2  0
  1 10  1  0
  2  3  1  0
  2  7  1  0
  4  3  1  6
  3  5  1  0
  5  6  2  0
  6  7  1  0
  7  8  2  0
  8  9  1  0
  9 10  2  0
 10 11  1  0
 11 12  2  0
 11 13  1  0
 12 20  1  0
 13 14  2  0
 13 18  1  0
 14 15  1  0
 15 16  2  0
 16 17  1  0
 17 18  2  0
 18 19  1  0
 19 20  2  0
 20 21  1  0
 21 22  1  0
 22 23  2  0
 22 27  1  0
 23 24  1  0
 24 25  2  0
 25 26  1  0
 26 27  2  0
 27 28  1  0
 28 29  2  0
 28 30  2  0
 28 31  1  6
 32 31  1  1
 32 33  1  0
 33 34  2  0
 33 38  1  0
 34 35  1  0
 35 36  2  0
 36 37  1  0
 37 38  2  0
M  END
$$$$
