
     RDKit          3D

 38 43  0  0  0  0  0  0  0  0999 V2000
   93.4062   51.2089  268.6459 C   0  0  0  0  0  0  0  0  0  0  0  0
   93.4746   52.4909  269.1467 C   0  0  0  0  0  0  0  0  0  0  0  0
   93.9214   52.9869  270.3328 N   0  0  0  0  0  0  0  0  0  0  0  0
   94.4656   52.1721  271.4022 C   0  0  0  0  0  0  0  0  0  0  0  0
   93.7494   54.3153  270.2784 C   0  0  0  0  0  0  0  0  0  0  0  0
   93.2028   54.6995  269.0896 C   0  0  0  0  0  0  0  0  0  0  0  0
   93.0250   53.5365  268.3620 C   0  0  0  0  0  0  0  0  0  0  0  0
   92.5203   53.2823  267.1031 C   0  0  0  0  0  0  0  0  0  0  0  0
   92.4492   52.0053  266.5970 C   0  0  0  0  0  0  0  0  0  0  0  0
   92.9022   50.9473  267.3866 C   0  0  0  0  0  0  0  0  0  0  0  0
   92.8573   49.5695  266.9157 C   0  0  0  0  0  0  0  0  0  0  0  0
   91.6449   48.9745  266.6461 C   0  0  0  0  0  0  0  0  0  0  0  0
   93.9860   48.8042  266.7184 C   0  0  0  0  0  0  0  0  0  0  0  0
   95.2007   49.3076  266.9574 N   0  0  0  0  0  0  0  0  0  0  0  0
   96.3078   48.5859  266.7737 C   0  0  0  0  0  0  0  0  0  0  0  0
   96.2308   47.2911  266.3290 C   0  0  0  0  0  0  0  0  0  0  0  0
   95.0252   46.7556  266.0797 N   0  0  0  0  0  0  0  0  0  0  0  0
   93.9200   47.4968  266.2701 C   0  0  0  0  0  0  0  0  0  0  0  0
   92.7040   46.9382  266.0123 C   0  0  0  0  0  0  0  0  0  0  0  0
   91.5621   47.6465  266.1901 C   0  0  0  0  0  0  0  0  0  0  0  0
   90.2756   47.1532  265.9179 N   0  0  0  0  0  0  0  0  0  0  0  0
   89.9462   46.6594  264.6344 C   0  0  0  0  0  0  0  0  0  0  0  0
   90.6555   46.9776  263.4986 C   0  0  0  0  0  0  0  0  0  0  0  0
   90.3196   46.4911  262.2622 C   0  0  0  0  0  0  0  0  0  0  0  0
   89.2367   45.6557  262.1552 C   0  0  0  0  0  0  0  0  0  0  0  0
   88.5271   45.3364  263.2873 C   0  0  0  0  0  0  0  0  0  0  0  0
   88.8494   45.8179  264.5441 C   0  0  0  0  0  0  0  0  0  0  0  0
   87.8245   45.3571  265.8560 S   0  0  2  0  0  6  0  0  0  0  0  0
   88.6642   45.4440  267.1251 O   0  0  0  0  0  0  0  0  0  0  0  0
   87.4739   43.9021  265.7155 O   0  0  0  0  0  0  0  0  0  0  0  0
   86.4521   46.3365  266.0824 N   0  0  0  0  0  0  0  0  0  0  0  0
   86.6086   47.2755  267.1788 C   0  0  0  0  0  0  0  0  0  0  0  0
   86.4944   48.6694  266.7294 C   0  0  0  0  0  0  0  0  0  0  0  0
   85.7529   49.0496  265.6214 C   0  0  0  0  0  0  0  0  0  0  0  0
   85.6911   50.3331  265.2678 N   0  0  0  0  0  0  0  0  0  0  0  0
   86.3203   51.3146  265.9356 C   0  0  0  0  0  0  0  0  0  0  0  0
   87.0404   50.9591  267.0090 N   0  0  0  0  0  0  0  0  0  0  0  0
   87.1421   49.6871  267.4155 C   0  0  0  0  0  0  0  0  0  0  0  0
  1  2  2  0
  1 10  1  0
  2  3  1  0
  2  7  1  0
  4  3  1  6
  3  5  1  0
  5  6  2  0
  6  7  1  0
  7  8  2  0
  8  9  1  0
  9 10  2  0
 10 11  1  0
 11 12  2  0
 11 13  1  0
 12 20  1  0
 13 14  2  0
 13 18  1  0
 14 15  1  0
 15 16  2  0
 16 17  1  0
 17 18  2  0
 18 19  1  0
 19 20  2  0
 20 21  1  0
 21 22  1  0
 22 23  2  0
 22 27  1  0
 23 24  1  0
 24 25  2  0
 25 26  1  0
 26 27  2  0
 27 28  1  0
 28 29  2  0
 28 30  2  0
 28 31  1  1
 32 31  1  1
 32 33  1  0
 33 34  2  0
 33 38  1  0
 34 35  1  0
 35 36  2  0
 36 37  1  0
 37 38  2  0
M  END
$$$$
