
     RDKit          3D

 38 43  0  0  0  0  0  0  0  0999 V2000
   93.1673   51.1475  268.7036 C   0  0  0  0  0  0  0  0  0  0  0  0
   93.3971   52.3956  269.2407 C   0  0  0  0  0  0  0  0  0  0  0  0
   92.9105   53.0179  270.3490 N   0  0  0  0  0  0  0  0  0  0  0  0
   91.9599   52.4199  271.2667 C   0  0  0  0  0  0  0  0  0  0  0  0
   93.4809   54.2305  270.3853 C   0  0  0  0  0  0  0  0  0  0  0  0
   94.3262   54.4163  269.3314 C   0  0  0  0  0  0  0  0  0  0  0  0
   94.2762   53.2456  268.5961 C   0  0  0  0  0  0  0  0  0  0  0  0
   94.9032   52.8351  267.4373 C   0  0  0  0  0  0  0  0  0  0  0  0
   94.6785   51.5909  266.8958 C   0  0  0  0  0  0  0  0  0  0  0  0
   93.7915   50.7301  267.5439 C   0  0  0  0  0  0  0  0  0  0  0  0
   93.5055   49.3982  267.0277 C   0  0  0  0  0  0  0  0  0  0  0  0
   92.2035   48.9563  266.9497 C   0  0  0  0  0  0  0  0  0  0  0  0
   94.4863   48.5296  266.6011 C   0  0  0  0  0  0  0  0  0  0  0  0
   95.7746   48.8824  266.6445 N   0  0  0  0  0  0  0  0  0  0  0  0
   96.7418   48.0584  266.2369 C   0  0  0  0  0  0  0  0  0  0  0  0
   96.4386   46.8108  265.7558 C   0  0  0  0  0  0  0  0  0  0  0  0
   95.1538   46.4258  265.6991 N   0  0  0  0  0  0  0  0  0  0  0  0
   94.1919   47.2684  266.1139 C   0  0  0  0  0  0  0  0  0  0  0  0
   92.8926   46.8622  266.0497 C   0  0  0  0  0  0  0  0  0  0  0  0
   91.8889   47.6769  266.4570 C   0  0  0  0  0  0  0  0  0  0  0  0
   90.5259   47.3440  266.3940 N   0  0  0  0  0  0  0  0  0  0  0  0
   89.5513   48.3317  266.1210 C   0  0  0  0  0  0  0  0  0  0  0  0
   89.8581   49.5758  265.6187 C   0  0  0  0  0  0  0  0  0  0  0  0
   88.8998   50.5215  265.3626 C   0  0  0  0  0  0  0  0  0  0  0  0
   87.5871   50.2143  265.6164 C   0  0  0  0  0  0  0  0  0  0  0  0
   87.2782   48.9732  266.1178 C   0  0  0  0  0  0  0  0  0  0  0  0
   88.2309   48.0053  266.3839 C   0  0  0  0  0  0  0  0  0  0  0  0
   87.6785   46.5139  267.0578 S   0  0  2  0  0  6  0  0  0  0  0  0
   86.3973   46.8222  267.8240 O   0  0  0  0  0  0  0  0  0  0  0  0
   88.6592   46.0548  268.1006 O   0  0  0  0  0  0  0  0  0  0  0  0
   87.3173   45.2964  265.9259 N   0  0  0  0  0  0  0  0  0  0  0  0
   86.9277   45.8309  264.6334 C   0  0  0  0  0  0  0  0  0  0  0  0
   88.0471   45.8405  263.6821 C   0  0  0  0  0  0  0  0  0  0  0  0
   87.9223   46.2706  262.3700 C   0  0  0  0  0  0  0  0  0  0  0  0
   88.9793   46.2533  261.5584 N   0  0  0  0  0  0  0  0  0  0  0  0
   90.1970   45.8331  261.9399 C   0  0  0  0  0  0  0  0  0  0  0  0
   90.3299   45.4148  263.2067 N   0  0  0  0  0  0  0  0  0  0  0  0
   89.3070   45.4076  264.0709 C   0  0  0  0  0  0  0  0  0  0  0  0
  1  2  2  0
  1 10  1  0
  2  3  1  0
  2  7  1  0
  4  3  1  6
  3  5  1  0
  5  6  2  0
  6  7  1  0
  7  8  2  0
  8  9  1  0
  9 10  2  0
 10 11  1  0
 11 12  2  0
 11 13  1  0
 12 20  1  0
 13 14  2  0
 13 18  1  0
 14 15  1  0
 15 16  2  0
 16 17  1  0
 17 18  2  0
 18 19  1  0
 19 20  2  0
 20 21  1  0
 21 22  1  0
 22 23  2  0
 22 27  1  0
 23 24  1  0
 24 25  2  0
 25 26  1  0
 26 27  2  0
 27 28  1  0
 28 29  2  0
 28 30  2  0
 28 31  1  6
 32 31  1  1
 32 33  1  0
 33 34  2  0
 33 38  1  0
 34 35  1  0
 35 36  2  0
 36 37  1  0
 37 38  2  0
M  END
$$$$
