
     RDKit          3D

 38 43  0  0  0  0  0  0  0  0999 V2000
   92.5451   51.6953  267.6489 C   0  0  0  0  0  0  0  0  0  0  0  0
   92.8550   52.9078  268.2256 C   0  0  0  0  0  0  0  0  0  0  0  0
   92.1274   54.0421  268.4171 N   0  0  0  0  0  0  0  0  0  0  0  0
   90.7456   54.2015  268.0064 C   0  0  0  0  0  0  0  0  0  0  0  0
   92.9381   54.9142  269.0331 C   0  0  0  0  0  0  0  0  0  0  0  0
   94.1743   54.3803  269.2486 C   0  0  0  0  0  0  0  0  0  0  0  0
   94.1265   53.0970  268.7340 C   0  0  0  0  0  0  0  0  0  0  0  0
   95.0553   52.0794  268.6566 C   0  0  0  0  0  0  0  0  0  0  0  0
   94.7528   50.8668  268.0824 C   0  0  0  0  0  0  0  0  0  0  0  0
   93.4699   50.6723  267.5681 C   0  0  0  0  0  0  0  0  0  0  0  0
   93.0793   49.4142  266.9460 C   0  0  0  0  0  0  0  0  0  0  0  0
   91.7825   49.2318  266.5198 C   0  0  0  0  0  0  0  0  0  0  0  0
   93.9533   48.3666  266.7531 C   0  0  0  0  0  0  0  0  0  0  0  0
   95.2291   48.4639  267.1389 N   0  0  0  0  0  0  0  0  0  0  0  0
   96.0937   47.4629  266.9625 C   0  0  0  0  0  0  0  0  0  0  0  0
   95.6937   46.2913  266.3731 C   0  0  0  0  0  0  0  0  0  0  0  0
   94.4184   46.1617  265.9741 N   0  0  0  0  0  0  0  0  0  0  0  0
   93.5606   47.1799  266.1595 C   0  0  0  0  0  0  0  0  0  0  0  0
   92.2696   47.0322  265.7487 C   0  0  0  0  0  0  0  0  0  0  0  0
   91.3687   48.0311  265.9151 C   0  0  0  0  0  0  0  0  0  0  0  0
   90.0310   47.9676  265.4919 N   0  0  0  0  0  0  0  0  0  0  0  0
   89.6019   46.9601  264.5971 C   0  0  0  0  0  0  0  0  0  0  0  0
   90.3307   46.5668  263.4979 C   0  0  0  0  0  0  0  0  0  0  0  0
   89.8973   45.5898  262.6401 C   0  0  0  0  0  0  0  0  0  0  0  0
   88.6926   44.9823  262.8888 C   0  0  0  0  0  0  0  0  0  0  0  0
   87.9631   45.3730  263.9853 C   0  0  0  0  0  0  0  0  0  0  0  0
   88.3828   46.3578  264.8624 C   0  0  0  0  0  0  0  0  0  0  0  0
   87.3230   46.7629  266.1649 S   0  0  2  0  0  6  0  0  0  0  0  0
   85.9859   47.1493  265.5435 O   0  0  0  0  0  0  0  0  0  0  0  0
   87.8228   48.0142  266.8315 O   0  0  0  0  0  0  0  0  0  0  0  0
   87.0276   45.5091  267.2760 N   0  0  0  0  0  0  0  0  0  0  0  0
   87.8682   45.5972  268.4566 C   0  0  0  0  0  0  0  0  0  0  0  0
   88.9241   44.5758  268.4573 C   0  0  0  0  0  0  0  0  0  0  0  0
   89.8703   44.4640  267.4502 C   0  0  0  0  0  0  0  0  0  0  0  0
   90.8023   43.5133  267.5123 N   0  0  0  0  0  0  0  0  0  0  0  0
   90.8883   42.6275  268.5189 C   0  0  0  0  0  0  0  0  0  0  0  0
   89.9786   42.7258  269.4986 N   0  0  0  0  0  0  0  0  0  0  0  0
   89.0175   43.6584  269.4944 C   0  0  0  0  0  0  0  0  0  0  0  0
  1  2  2  0
  1 10  1  0
  2  3  1  0
  2  7  1  0
  4  3  1  6
  3  5  1  0
  5  6  2  0
  6  7  1  0
  7  8  2  0
  8  9  1  0
  9 10  2  0
 10 11  1  0
 11 12  2  0
 11 13  1  0
 12 20  1  0
 13 14  2  0
 13 18  1  0
 14 15  1  0
 15 16  2  0
 16 17  1  0
 17 18  2  0
 18 19  1  0
 19 20  2  0
 20 21  1  0
 21 22  1  0
 22 23  2  0
 22 27  1  0
 23 24  1  0
 24 25  2  0
 25 26  1  0
 26 27  2  0
 27 28  1  0
 28 29  2  0
 28 30  2  0
 28 31  1  1
 32 31  1  1
 32 33  1  0
 33 34  2  0
 33 38  1  0
 34 35  1  0
 35 36  2  0
 36 37  1  0
 37 38  2  0
M  END
$$$$
