
     RDKit          3D

 38 43  0  0  0  0  0  0  0  0999 V2000
   93.2101   51.6029  268.8705 C   0  0  0  0  0  0  0  0  0  0  0  0
   93.4793   52.8161  269.4682 C   0  0  0  0  0  0  0  0  0  0  0  0
   93.0302   53.3807  270.6084 N   0  0  0  0  0  0  0  0  0  0  0  0
   92.0859   52.7862  271.5347 C   0  0  0  0  0  0  0  0  0  0  0  0
   93.6157   54.5797  270.7197 C   0  0  0  0  0  0  0  0  0  0  0  0
   94.4564   54.8036  269.6430 C   0  0  0  0  0  0  0  0  0  0  0  0
   94.3708   53.6812  268.8447 C   0  0  0  0  0  0  0  0  0  0  0  0
   94.9550   53.3006  267.6537 C   0  0  0  0  0  0  0  0  0  0  0  0
   94.6657   52.0795  267.0797 C   0  0  0  0  0  0  0  0  0  0  0  0
   93.7767   51.2031  267.6902 C   0  0  0  0  0  0  0  0  0  0  0  0
   93.4568   49.8971  267.0913 C   0  0  0  0  0  0  0  0  0  0  0  0
   92.1583   49.4938  266.8854 C   0  0  0  0  0  0  0  0  0  0  0  0
   94.5083   49.0789  266.7375 C   0  0  0  0  0  0  0  0  0  0  0  0
   95.7876   49.4617  266.9335 N   0  0  0  0  0  0  0  0  0  0  0  0
   96.8249   48.6697  266.5915 C   0  0  0  0  0  0  0  0  0  0  0  0
   96.5423   47.4504  266.0326 C   0  0  0  0  0  0  0  0  0  0  0  0
   95.2553   47.0652  265.8354 N   0  0  0  0  0  0  0  0  0  0  0  0
   94.2219   47.8533  266.1757 C   0  0  0  0  0  0  0  0  0  0  0  0
   92.9102   47.4571  265.9732 C   0  0  0  0  0  0  0  0  0  0  0  0
   91.8395   48.2539  266.3161 C   0  0  0  0  0  0  0  0  0  0  0  0
   90.4764   47.8950  266.1604 N   0  0  0  0  0  0  0  0  0  0  0  0
   89.9976   46.6226  266.5253 C   0  0  0  0  0  0  0  0  0  0  0  0
   90.8043   45.6686  267.1278 C   0  0  0  0  0  0  0  0  0  0  0  0
   90.3147   44.4423  267.5084 C   0  0  0  0  0  0  0  0  0  0  0  0
   89.0087   44.1389  267.2964 C   0  0  0  0  0  0  0  0  0  0  0  0
   88.2070   45.0926  266.6945 C   0  0  0  0  0  0  0  0  0  0  0  0
   88.6562   46.3319  266.2972 C   0  0  0  0  0  0  0  0  0  0  0  0
   87.6678   47.5211  265.5576 S   0  0  2  0  0  6  0  0  0  0  0  0
   88.2313   48.8874  265.9581 O   0  0  0  0  0  0  0  0  0  0  0  0
   86.2704   47.4605  266.1111 O   0  0  0  0  0  0  0  0  0  0  0  0
   87.5715   47.5154  263.8756 N   0  0  0  0  0  0  0  0  0  0  0  0
   88.6533   48.0805  263.1472 C   0  0  0  0  0  0  0  0  0  0  0  0
   89.3539   47.0340  262.3622 C   0  0  0  0  0  0  0  0  0  0  0  0
   88.7850   45.7879  262.2849 C   0  0  0  0  0  0  0  0  0  0  0  0
   89.4299   44.8461  261.5669 N   0  0  0  0  0  0  0  0  0  0  0  0
   90.5910   45.1042  260.9427 C   0  0  0  0  0  0  0  0  0  0  0  0
   91.1608   46.3271  261.0114 N   0  0  0  0  0  0  0  0  0  0  0  0
   90.5381   47.3047  261.7281 C   0  0  0  0  0  0  0  0  0  0  0  0
  1  2  2  0
  1 10  1  0
  2  3  1  0
  2  7  1  0
  3  4  1  0
  3  5  1  0
  5  6  2  0
  6  7  1  0
  7  8  2  0
  8  9  1  0
  9 10  2  0
 10 11  1  0
 11 12  2  0
 11 13  1  0
 12 20  1  0
 13 14  2  0
 13 18  1  0
 14 15  1  0
 15 16  2  0
 16 17  1  0
 17 18  2  0
 18 19  1  0
 19 20  2  0
 20 21  1  0
 21 22  1  0
 22 23  2  0
 22 27  1  0
 23 24  1  0
 24 25  2  0
 25 26  1  0
 26 27  2  0
 27 28  1  0
 28 29  2  0
 28 30  2  0
 28 31  1  6
 31 32  1  0
 32 33  1  0
 33 34  2  0
 33 38  1  0
 34 35  1  0
 35 36  2  0
 36 37  1  0
 37 38  2  0
M  END
$$$$
