
     RDKit          3D

 38 43  0  0  0  0  0  0  0  0999 V2000
   94.5994   48.1822  268.6031 C   0  0  0  0  0  0  0  0  0  0  0  0
   95.7723   47.5937  269.0269 C   0  0  0  0  0  0  0  0  0  0  0  0
   96.0616   46.3349  269.4173 N   0  0  0  0  0  0  0  0  0  0  0  0
   95.1240   45.2305  269.4828 C   0  0  0  0  0  0  0  0  0  0  0  0
   97.3634   46.3010  269.7287 C   0  0  0  0  0  0  0  0  0  0  0  0
   97.9331   47.5485  269.5408 C   0  0  0  0  0  0  0  0  0  0  0  0
   96.9211   48.3732  269.0938 C   0  0  0  0  0  0  0  0  0  0  0  0
   96.8518   49.7043  268.7359 C   0  0  0  0  0  0  0  0  0  0  0  0
   95.6630   50.2652  268.3155 C   0  0  0  0  0  0  0  0  0  0  0  0
   94.5056   49.4996  268.2430 C   0  0  0  0  0  0  0  0  0  0  0  0
   93.2295   50.0822  267.7971 C   0  0  0  0  0  0  0  0  0  0  0  0
   92.3284   49.3632  267.0472 C   0  0  0  0  0  0  0  0  0  0  0  0
   92.9588   51.3851  268.1568 C   0  0  0  0  0  0  0  0  0  0  0  0
   93.8338   52.1026  268.8926 N   0  0  0  0  0  0  0  0  0  0  0  0
   93.5800   53.3784  269.2506 C   0  0  0  0  0  0  0  0  0  0  0  0
   92.3954   53.9343  268.8425 C   0  0  0  0  0  0  0  0  0  0  0  0
   91.5152   53.2127  268.1023 N   0  0  0  0  0  0  0  0  0  0  0  0
   91.7672   51.9422  267.7454 C   0  0  0  0  0  0  0  0  0  0  0  0
   90.8669   51.2089  266.9901 C   0  0  0  0  0  0  0  0  0  0  0  0
   91.1102   49.9051  266.6165 C   0  0  0  0  0  0  0  0  0  0  0  0
   90.2435   49.1118  265.8224 N   0  0  0  0  0  0  0  0  0  0  0  0
   89.7556   49.5611  264.5808 C   0  0  0  0  0  0  0  0  0  0  0  0
   90.2872   50.6628  263.9268 C   0  0  0  0  0  0  0  0  0  0  0  0
   89.8223   51.0702  262.6996 C   0  0  0  0  0  0  0  0  0  0  0  0
   88.8157   50.3882  262.0961 C   0  0  0  0  0  0  0  0  0  0  0  0
   88.2872   49.2902  262.7516 C   0  0  0  0  0  0  0  0  0  0  0  0
   88.7220   48.8485  263.9809 C   0  0  0  0  0  0  0  0  0  0  0  0
   88.0773   47.4853  264.7958 S   0  0  2  0  0  6  0  0  0  0  0  0
   89.2536   46.7524  265.4471 O   0  0  0  0  0  0  0  0  0  0  0  0
   87.4716   46.5230  263.8110 O   0  0  0  0  0  0  0  0  0  0  0  0
   86.9529   47.7701  266.0176 N   0  0  0  0  0  0  0  0  0  0  0  0
   86.9809   46.9203  267.1565 C   0  0  0  0  0  0  0  0  0  0  0  0
   86.7393   47.7023  268.3943 C   0  0  0  0  0  0  0  0  0  0  0  0
   86.2997   47.0359  269.5100 C   0  0  0  0  0  0  0  0  0  0  0  0
   86.0858   47.7570  270.6293 N   0  0  0  0  0  0  0  0  0  0  0  0
   86.2919   49.0839  270.6660 C   0  0  0  0  0  0  0  0  0  0  0  0
   86.7247   49.7511  269.5740 N   0  0  0  0  0  0  0  0  0  0  0  0
   86.9518   49.0557  268.4242 C   0  0  0  0  0  0  0  0  0  0  0  0
  1  2  2  0
  1 10  1  0
  2  3  1  0
  2  7  1  0
  3  4  1  0
  3  5  1  0
  5  6  2  0
  6  7  1  0
  7  8  2  0
  8  9  1  0
  9 10  2  0
 10 11  1  0
 11 12  2  0
 11 13  1  0
 12 20  1  0
 13 14  2  0
 13 18  1  0
 14 15  1  0
 15 16  2  0
 16 17  1  0
 17 18  2  0
 18 19  1  0
 19 20  2  0
 20 21  1  0
 21 22  1  0
 22 23  2  0
 22 27  1  0
 23 24  1  0
 24 25  2  0
 25 26  1  0
 26 27  2  0
 27 28  1  0
 28 29  2  0
 28 30  2  0
 28 31  1  1
 31 32  1  0
 32 33  1  0
 33 34  2  0
 33 38  1  0
 34 35  1  0
 35 36  2  0
 36 37  1  0
 37 38  2  0
M  END
$$$$
