
     RDKit          3D

 38 43  0  0  0  0  0  0  0  0999 V2000
   93.5507   52.0176  267.5579 C   0  0  0  0  0  0  0  0  0  0  0  0
   93.6501   53.1641  268.3176 C   0  0  0  0  0  0  0  0  0  0  0  0
   93.2262   54.4275  268.1060 N   0  0  0  0  0  0  0  0  0  0  0  0
   92.5126   54.8978  266.9345 C   0  0  0  0  0  0  0  0  0  0  0  0
   93.5860   55.1547  269.1713 C   0  0  0  0  0  0  0  0  0  0  0  0
   94.2517   54.3613  270.0897 C   0  0  0  0  0  0  0  0  0  0  0  0
   94.2935   53.0930  269.5477 C   0  0  0  0  0  0  0  0  0  0  0  0
   94.8096   51.8838  269.9672 C   0  0  0  0  0  0  0  0  0  0  0  0
   94.6945   50.7531  269.1844 C   0  0  0  0  0  0  0  0  0  0  0  0
   94.0542   50.8073  267.9522 C   0  0  0  0  0  0  0  0  0  0  0  0
   93.9230   49.6109  267.1048 C   0  0  0  0  0  0  0  0  0  0  0  0
   92.7111   49.2222  266.5840 C   0  0  0  0  0  0  0  0  0  0  0  0
   95.0633   48.8815  266.8440 C   0  0  0  0  0  0  0  0  0  0  0  0
   96.2594   49.2513  267.3483 N   0  0  0  0  0  0  0  0  0  0  0  0
   97.3822   48.5455  267.1000 C   0  0  0  0  0  0  0  0  0  0  0  0
   97.2754   47.4288  266.3123 C   0  0  0  0  0  0  0  0  0  0  0  0
   96.0722   47.0567  265.8050 N   0  0  0  0  0  0  0  0  0  0  0  0
   94.9537   47.7590  266.0517 C   0  0  0  0  0  0  0  0  0  0  0  0
   93.7279   47.3765  265.5326 C   0  0  0  0  0  0  0  0  0  0  0  0
   92.5720   48.0862  265.7758 C   0  0  0  0  0  0  0  0  0  0  0  0
   91.2848   47.7319  265.2975 N   0  0  0  0  0  0  0  0  0  0  0  0
   90.3613   47.0345  266.0989 C   0  0  0  0  0  0  0  0  0  0  0  0
   90.5419   46.8610  267.4632 C   0  0  0  0  0  0  0  0  0  0  0  0
   89.6156   46.2061  268.2387 C   0  0  0  0  0  0  0  0  0  0  0  0
   88.4875   45.7085  267.6711 C   0  0  0  0  0  0  0  0  0  0  0  0
   88.3109   45.8826  266.3098 C   0  0  0  0  0  0  0  0  0  0  0  0
   89.2127   46.5309  265.4964 C   0  0  0  0  0  0  0  0  0  0  0  0
   88.9978   46.7567  263.8109 S   0  0  2  0  0  6  0  0  0  0  0  0
   90.1678   46.0600  263.1106 O   0  0  0  0  0  0  0  0  0  0  0  0
   89.1017   48.2156  263.4592 O   0  0  0  0  0  0  0  0  0  0  0  0
   87.5895   46.1443  263.1180 N   0  0  0  0  0  0  0  0  0  0  0  0
   86.3839   46.2480  263.8633 C   0  0  0  0  0  0  0  0  0  0  0  0
   85.6117   47.4420  263.4388 C   0  0  0  0  0  0  0  0  0  0  0  0
   85.3006   47.5772  262.1094 C   0  0  0  0  0  0  0  0  0  0  0  0
   84.5968   48.6652  261.7361 N   0  0  0  0  0  0  0  0  0  0  0  0
   84.2065   49.5942  262.6245 C   0  0  0  0  0  0  0  0  0  0  0  0
   84.5068   49.4721  263.9359 N   0  0  0  0  0  0  0  0  0  0  0  0
   85.2170   48.3856  264.3507 C   0  0  0  0  0  0  0  0  0  0  0  0
  1  2  2  0
  1 10  1  0
  2  3  1  0
  2  7  1  0
  3  4  1  0
  3  5  1  0
  5  6  2  0
  6  7  1  0
  7  8  2  0
  8  9  1  0
  9 10  2  0
 10 11  1  0
 11 12  2  0
 11 13  1  0
 12 20  1  0
 13 14  2  0
 13 18  1  0
 14 15  1  0
 15 16  2  0
 16 17  1  0
 17 18  2  0
 18 19  1  0
 19 20  2  0
 20 21  1  0
 21 22  1  0
 22 23  2  0
 22 27  1  0
 23 24  1  0
 24 25  2  0
 25 26  1  0
 26 27  2  0
 27 28  1  0
 28 29  2  0
 28 30  2  0
 28 31  1  6
 31 32  1  0
 32 33  1  0
 33 34  2  0
 33 38  1  0
 34 35  1  0
 35 36  2  0
 36 37  1  0
 37 38  2  0
M  END
$$$$
