
     RDKit          3D

 20 20  0  0  0  0  0  0  0  0999 V2000
  157.4196   18.7569  -19.4543 C   0  0  0  0  0  0  0  0  0  0  0  0
  157.7109   20.1768  -19.6027 C   0  0  0  0  0  0  0  0  0  0  0  0
  158.7866   20.6582  -19.0461 C   0  0  0  0  0  0  0  0  0  0  0  0
  159.1520   22.0782  -19.1485 C   0  0  1  0  0  0  0  0  0  0  0  0
  157.9834   22.9575  -19.5296 C   0  0  2  0  0  0  0  0  0  0  0  0
  157.1947   22.3522  -20.6487 C   0  0  2  0  0  0  0  0  0  0  0  0
  155.9321   23.1113  -20.9061 C   0  0  1  0  0  0  0  0  0  0  0  0
  154.6756   22.3047  -20.8185 C   0  0  1  0  0  0  0  0  0  0  0  0
  153.4215   23.1023  -21.0756 C   0  0  0  0  0  0  0  0  0  0  0  0
  158.2502   25.4361  -19.1591 C   0  0  0  0  0  0  0  0  0  0  0  0
  158.8938   26.7462  -19.4232 C   0  0  0  0  0  0  0  0  0  0  0  0
  158.5415   24.2625  -19.8868 N   0  0  0  0  0  0  0  0  0  0  0  0
  156.1554   18.2671  -19.7821 O   0  0  0  0  0  0  0  0  0  0  0  0
  158.2914   17.9572  -19.0334 O   0  0  0  0  0  0  0  0  0  0  0  0
  159.6489   22.5527  -17.9350 O   0  0  0  0  0  0  0  0  0  0  0  0
  156.8846   21.0330  -20.3147 O   0  0  0  0  0  0  0  0  0  0  0  0
  155.8211   24.2406  -20.0910 O   0  0  0  0  0  0  0  0  0  0  0  0
  154.7149   21.3187  -21.8149 O   0  0  0  0  0  0  0  0  0  0  0  0
  153.6117   23.7985  -22.2805 O   0  0  0  0  0  0  0  0  0  0  0  0
  157.4008   25.3750  -18.2364 O   0  0  0  0  0  0  0  0  0  0  0  0
  2  1  1  0
  1 13  1  0
  1 14  2  0
  3  2  2  0
 16  2  1  0
  4  3  1  0
  5  4  1  0
  4 15  1  1
  5  6  1  0
  5 12  1  6
  6  7  1  0
  6 16  1  1
  7  8  1  0
  7 17  1  1
  8  9  1  0
  8 18  1  6
  9 19  1  0
 10 11  1  0
 10 12  1  0
 10 20  2  0
M  END
$$$$
