
     RDKit          3D

 20 20  0  0  0  0  0  0  0  0999 V2000
  162.5580   15.7485  -19.8011 C   0  0  0  0  0  0  0  0  0  0  0  0
  161.6505   16.8729  -19.6134 C   0  0  0  0  0  0  0  0  0  0  0  0
  161.5807   17.7846  -20.5422 C   0  0  0  0  0  0  0  0  0  0  0  0
  160.6912   18.9493  -20.4298 C   0  0  1  0  0  0  0  0  0  0  0  0
  160.2533   19.2167  -19.0083 C   0  0  2  0  0  0  0  0  0  0  0  0
  159.8438   17.9508  -18.3223 C   0  0  2  0  0  0  0  0  0  0  0  0
  159.5930   18.1707  -16.8644 C   0  0  1  0  0  0  0  0  0  0  0  0
  159.3517   16.9291  -16.0660 C   0  0  1  0  0  0  0  0  0  0  0  0
  158.9338   17.1939  -14.6410 C   0  0  0  0  0  0  0  0  0  0  0  0
  159.2165   21.4444  -18.4473 C   0  0  0  0  0  0  0  0  0  0  0  0
  158.1071   22.4286  -18.4744 C   0  0  0  0  0  0  0  0  0  0  0  0
  159.1591   20.1858  -19.0834 N   0  0  0  0  0  0  0  0  0  0  0  0
  162.6124   14.7308  -18.8487 O   0  0  0  0  0  0  0  0  0  0  0  0
  163.2992   15.6758  -20.8120 O   0  0  0  0  0  0  0  0  0  0  0  0
  161.3219   20.1035  -20.8929 O   0  0  0  0  0  0  0  0  0  0  0  0
  160.8593   17.0068  -18.4826 O   0  0  0  0  0  0  0  0  0  0  0  0
  160.6048   18.9241  -16.2638 O   0  0  0  0  0  0  0  0  0  0  0  0
  158.2897   16.2270  -16.6538 O   0  0  0  0  0  0  0  0  0  0  0  0
  158.7438   15.9459  -14.0253 O   0  0  0  0  0  0  0  0  0  0  0  0
  160.2607   21.7542  -17.8226 O   0  0  0  0  0  0  0  0  0  0  0  0
  2  1  1  0
  1 13  1  0
  1 14  2  0
  3  2  2  0
 16  2  1  0
  4  3  1  0
  5  4  1  0
  4 15  1  1
  5  6  1  0
  5 12  1  6
  6  7  1  0
  6 16  1  1
  7  8  1  0
  7 17  1  1
  8  9  1  0
  8 18  1  6
  9 19  1  0
 10 11  1  0
 10 12  1  0
 10 20  2  0
M  END
$$$$
