
     RDKit          3D

 20 20  0  0  0  0  0  0  0  0999 V2000
  156.3187   18.5488  -17.3377 C   0  0  0  0  0  0  0  0  0  0  0  0
  157.3096   19.0671  -18.2719 C   0  0  0  0  0  0  0  0  0  0  0  0
  158.0210   18.2228  -18.9645 C   0  0  0  0  0  0  0  0  0  0  0  0
  159.0404   18.6637  -19.9271 C   0  0  1  0  0  0  0  0  0  0  0  0
  159.4872   20.0887  -19.6953 C   0  0  2  0  0  0  0  0  0  0  0  0
  158.3163   20.9885  -19.4499 C   0  0  2  0  0  0  0  0  0  0  0  0
  158.7514   22.3565  -19.0305 C   0  0  1  0  0  0  0  0  0  0  0  0
  157.6419   23.3049  -18.7040 C   0  0  1  0  0  0  0  0  0  0  0  0
  158.1035   24.7197  -18.4580 C   0  0  0  0  0  0  0  0  0  0  0  0
  161.6207   20.8248  -20.8172 C   0  0  0  0  0  0  0  0  0  0  0  0
  162.4228   21.2155  -22.0022 C   0  0  0  0  0  0  0  0  0  0  0  0
  160.2524   20.4844  -20.8786 N   0  0  0  0  0  0  0  0  0  0  0  0
  156.0880   17.1755  -17.2579 O   0  0  0  0  0  0  0  0  0  0  0  0
  155.6619   19.3201  -16.5959 O   0  0  0  0  0  0  0  0  0  0  0  0
  160.1754   17.8568  -19.8544 O   0  0  0  0  0  0  0  0  0  0  0  0
  157.5220   20.4258  -18.4497 O   0  0  0  0  0  0  0  0  0  0  0  0
  159.6611   22.3180  -17.9707 O   0  0  0  0  0  0  0  0  0  0  0  0
  156.7783   23.3687  -19.8070 O   0  0  0  0  0  0  0  0  0  0  0  0
  158.4462   25.2675  -19.7050 O   0  0  0  0  0  0  0  0  0  0  0  0
  162.1967   20.7973  -19.7018 O   0  0  0  0  0  0  0  0  0  0  0  0
  2  1  1  0
  1 13  1  0
  1 14  2  0
  3  2  2  0
 16  2  1  0
  4  3  1  0
  5  4  1  0
  4 15  1  1
  5  6  1  0
  5 12  1  6
  6  7  1  0
  6 16  1  1
  7  8  1  0
  7 17  1  1
  8  9  1  0
  8 18  1  6
  9 19  1  0
 10 11  1  0
 10 12  1  0
 10 20  2  0
M  END
$$$$
