
     RDKit          3D

 20 20  0  0  0  0  0  0  0  0999 V2000
  132.8377   37.5224   -8.6486 C   0  0  0  0  0  0  0  0  0  0  0  0
  133.5518   36.6190   -9.5751 C   0  0  0  0  0  0  0  0  0  0  0  0
  133.2453   36.6138  -10.8478 C   0  0  0  0  0  0  0  0  0  0  0  0
  133.9258   35.7341  -11.8124 C   0  0  1  0  0  0  0  0  0  0  0  0
  134.6194   34.5890  -11.0984 C   0  0  2  0  0  0  0  0  0  0  0  0
  135.4373   35.2288  -10.0244 C   0  0  2  0  0  0  0  0  0  0  0  0
  136.4118   34.3717   -9.3312 C   0  0  1  0  0  0  0  0  0  0  0  0
  137.2802   35.0200   -8.2985 C   0  0  1  0  0  0  0  0  0  0  0  0
  138.1752   34.0476   -7.5658 C   0  0  0  0  0  0  0  0  0  0  0  0
  135.1850   32.4823  -12.2227 C   0  0  0  0  0  0  0  0  0  0  0  0
  135.8643   31.7404  -13.3289 C   0  0  0  0  0  0  0  0  0  0  0  0
  135.3773   33.8828  -12.0803 N   0  0  0  0  0  0  0  0  0  0  0  0
  133.2039   37.5753   -7.3120 O   0  0  0  0  0  0  0  0  0  0  0  0
  131.9107   38.2224   -9.1047 O   0  0  0  0  0  0  0  0  0  0  0  0
  132.9579   35.2677  -12.7013 O   0  0  0  0  0  0  0  0  0  0  0  0
  134.5357   35.7862   -9.1001 O   0  0  0  0  0  0  0  0  0  0  0  0
  135.8186   33.2018   -8.7905 O   0  0  0  0  0  0  0  0  0  0  0  0
  137.9431   36.1539   -8.7039 O   0  0  0  0  0  0  0  0  0  0  0  0
  139.1885   33.6699   -8.4805 O   0  0  0  0  0  0  0  0  0  0  0  0
  134.4472   31.8059  -11.4406 O   0  0  0  0  0  0  0  0  0  0  0  0
  2  1  1  0
  1 13  1  0
  1 14  2  0
  3  2  2  0
 16  2  1  0
  4  3  1  0
  5  4  1  0
  4 15  1  6
  5  6  1  0
  5 12  1  6
  6  7  1  0
  6 16  1  1
  7  8  1  0
  7 17  1  1
  8  9  1  0
  8 18  1  6
  9 19  1  6
 11 10  1  6
 10 12  1  0
 10 20  2  0
M  END
$$$$
