
     RDKit          3D

 20 20  0  0  0  0  0  0  0  0999 V2000
  157.5602   17.7139  -17.7086 C   0  0  0  0  0  0  0  0  0  0  0  0
  158.7203   18.5238  -18.1359 C   0  0  0  0  0  0  0  0  0  0  0  0
  158.9258   18.7491  -19.4090 C   0  0  0  0  0  0  0  0  0  0  0  0
  160.0654   19.5490  -19.8875 C   0  0  1  0  0  0  0  0  0  0  0  0
  161.1405   19.6438  -18.8210 C   0  0  2  0  0  0  0  0  0  0  0  0
  160.4329   20.0894  -17.5832 C   0  0  2  0  0  0  0  0  0  0  0  0
  161.2739   20.5051  -16.4496 C   0  0  1  0  0  0  0  0  0  0  0  0
  160.5768   21.0725  -15.2526 C   0  0  1  0  0  0  0  0  0  0  0  0
  161.4982   21.3279  -14.0824 C   0  0  0  0  0  0  0  0  0  0  0  0
  163.4904   20.1586  -19.3059 C   0  0  0  0  0  0  0  0  0  0  0  0
  164.5275   21.0399  -19.9251 C   0  0  0  0  0  0  0  0  0  0  0  0
  162.1265   20.5567  -19.3022 N   0  0  0  0  0  0  0  0  0  0  0  0
  156.6682   17.2283  -18.6530 O   0  0  0  0  0  0  0  0  0  0  0  0
  157.4156   17.4874  -16.4899 O   0  0  0  0  0  0  0  0  0  0  0  0
  160.5471   18.9334  -21.0422 O   0  0  0  0  0  0  0  0  0  0  0  0
  159.5813   19.0388  -17.1974 O   0  0  0  0  0  0  0  0  0  0  0  0
  162.1752   19.4886  -16.0404 O   0  0  0  0  0  0  0  0  0  0  0  0
  159.7259   22.1232  -15.5010 O   0  0  0  0  0  0  0  0  0  0  0  0
  161.6811   20.0800  -13.4379 O   0  0  0  0  0  0  0  0  0  0  0  0
  163.8894   19.0648  -18.7982 O   0  0  0  0  0  0  0  0  0  0  0  0
  2  1  1  0
  1 13  1  0
  1 14  2  0
  3  2  2  0
 16  2  1  0
  4  3  1  0
  5  4  1  0
  4 15  1  6
  5  6  1  0
  5 12  1  6
  6  7  1  0
  6 16  1  1
  7  8  1  0
  7 17  1  1
  8  9  1  0
  8 18  1  6
  9 19  1  6
 11 10  1  6
 10 12  1  0
 10 20  2  0
M  END
$$$$
