
     RDKit          3D

 20 20  0  0  0  0  0  0  0  0999 V2000
  127.0161   33.7589  -11.1646 C   0  0  0  0  0  0  0  0  0  0  0  0
  128.3784   34.2460  -10.8624 C   0  0  0  0  0  0  0  0  0  0  0  0
  128.6288   34.8104   -9.7080 C   0  0  0  0  0  0  0  0  0  0  0  0
  129.9676   35.3123   -9.3569 C   0  0  1  0  0  0  0  0  0  0  0  0
  130.8106   35.5103  -10.6029 C   0  0  2  0  0  0  0  0  0  0  0  0
  130.7118   34.2245  -11.3569 C   0  0  2  0  0  0  0  0  0  0  0  0
  131.6349   34.0447  -12.4885 C   0  0  1  0  0  0  0  0  0  0  0  0
  131.4978   32.7879  -13.2900 C   0  0  1  0  0  0  0  0  0  0  0  0
  132.3663   32.7629  -14.5265 C   0  0  0  0  0  0  0  0  0  0  0  0
  132.7070   37.0677  -10.5946 C   0  0  0  0  0  0  0  0  0  0  0  0
  134.0543   37.4771  -10.0918 C   0  0  0  0  0  0  0  0  0  0  0  0
  132.1284   35.8427  -10.1668 N   0  0  0  0  0  0  0  0  0  0  0  0
  126.7867   33.0052  -12.3060 O   0  0  0  0  0  0  0  0  0  0  0  0
  126.0974   34.0454  -10.3701 O   0  0  0  0  0  0  0  0  0  0  0  0
  129.7922   36.5105   -8.6657 O   0  0  0  0  0  0  0  0  0  0  0  0
  129.3798   34.1064  -11.7924 O   0  0  0  0  0  0  0  0  0  0  0  0
  131.6540   35.1659  -13.3576 O   0  0  0  0  0  0  0  0  0  0  0  0
  131.5544   31.6156  -12.5745 O   0  0  0  0  0  0  0  0  0  0  0  0
  131.5595   33.2338  -15.5912 O   0  0  0  0  0  0  0  0  0  0  0  0
  132.1274   37.8572  -11.4035 O   0  0  0  0  0  0  0  0  0  0  0  0
  2  1  1  0
  1 13  1  0
  1 14  2  0
  3  2  2  0
 16  2  1  0
  4  3  1  0
  5  4  1  0
  4 15  1  6
  5  6  1  0
  5 12  1  1
  6  7  1  0
  6 16  1  6
  7  8  1  0
  7 17  1  6
  8  9  1  0
  8 18  1  1
  9 19  1  6
 11 10  1  6
 10 12  1  0
 10 20  2  0
M  END
$$$$
