
     RDKit          3D

 20 20  0  0  0  0  0  0  0  0999 V2000
  127.2182   34.8202  -10.3860 C   0  0  0  0  0  0  0  0  0  0  0  0
  128.4871   34.3800  -11.0029 C   0  0  0  0  0  0  0  0  0  0  0  0
  129.3421   33.6753  -10.3057 C   0  0  0  0  0  0  0  0  0  0  0  0
  130.6195   33.2119  -10.8723 C   0  0  1  0  0  0  0  0  0  0  0  0
  130.9846   34.0188  -12.1043 C   0  0  2  0  0  0  0  0  0  0  0  0
  129.7707   33.9854  -12.9743 C   0  0  2  0  0  0  0  0  0  0  0  0
  129.9256   34.4807  -14.3511 C   0  0  1  0  0  0  0  0  0  0  0  0
  128.7013   34.5017  -15.2123 C   0  0  1  0  0  0  0  0  0  0  0  0
  128.9831   34.8594  -16.6532 C   0  0  0  0  0  0  0  0  0  0  0  0
  133.2898   34.2062  -12.9249 C   0  0  0  0  0  0  0  0  0  0  0  0
  134.5261   33.5856  -13.4923 C   0  0  0  0  0  0  0  0  0  0  0  0
  132.1412   33.4079  -12.6757 N   0  0  0  0  0  0  0  0  0  0  0  0
  126.1023   35.0424  -11.1789 O   0  0  0  0  0  0  0  0  0  0  0  0
  127.1886   34.9814   -9.1489 O   0  0  0  0  0  0  0  0  0  0  0  0
  131.5855   33.3409   -9.8750 O   0  0  0  0  0  0  0  0  0  0  0  0
  128.7680   34.7108  -12.3064 O   0  0  0  0  0  0  0  0  0  0  0  0
  130.5693   35.7439  -14.4049 O   0  0  0  0  0  0  0  0  0  0  0  0
  127.8646   33.4185  -15.0852 O   0  0  0  0  0  0  0  0  0  0  0  0
  129.5405   33.7024  -17.2506 O   0  0  0  0  0  0  0  0  0  0  0  0
  133.3262   35.4532  -12.6858 O   0  0  0  0  0  0  0  0  0  0  0  0
  2  1  1  0
  1 13  1  0
  1 14  2  0
  3  2  2  0
 16  2  1  0
  4  3  1  0
  5  4  1  0
  4 15  1  1
  5  6  1  0
  5 12  1  6
  6  7  1  0
  6 16  1  1
  7  8  1  0
  7 17  1  1
  8  9  1  0
  8 18  1  6
  9 19  1  6
 11 10  1  6
 10 12  1  0
 10 20  2  0
M  END
$$$$
