
     RDKit          3D

 20 20  0  0  0  0  0  0  0  0999 V2000
  131.0559   31.4233  -13.1990 C   0  0  0  0  0  0  0  0  0  0  0  0
  131.5157   32.5438  -12.3520 C   0  0  0  0  0  0  0  0  0  0  0  0
  130.7596   32.9764  -11.3747 C   0  0  0  0  0  0  0  0  0  0  0  0
  131.1702   34.0886  -10.5019 C   0  0  1  0  0  0  0  0  0  0  0  0
  132.2695   34.9059  -11.1547 C   0  0  2  0  0  0  0  0  0  0  0  0
  133.3056   33.9143  -11.5727 C   0  0  2  0  0  0  0  0  0  0  0  0
  134.6025   34.4531  -12.0119 C   0  0  1  0  0  0  0  0  0  0  0  0
  135.6210   33.4710  -12.5006 C   0  0  1  0  0  0  0  0  0  0  0  0
  136.9337   34.1082  -12.8939 C   0  0  0  0  0  0  0  0  0  0  0  0
  132.7143   37.2360  -10.5259 C   0  0  0  0  0  0  0  0  0  0  0  0
  133.0910   38.2598   -9.5035 C   0  0  0  0  0  0  0  0  0  0  0  0
  132.7138   35.8562  -10.1868 N   0  0  0  0  0  0  0  0  0  0  0  0
  131.9165   30.8582  -14.1283 O   0  0  0  0  0  0  0  0  0  0  0  0
  129.8872   31.0121  -13.0499 O   0  0  0  0  0  0  0  0  0  0  0  0
  130.0368   34.8634  -10.2581 O   0  0  0  0  0  0  0  0  0  0  0  0
  132.7348   33.1301  -12.5910 O   0  0  0  0  0  0  0  0  0  0  0  0
  134.4631   35.5053  -12.9533 O   0  0  0  0  0  0  0  0  0  0  0  0
  135.7844   32.3468  -11.7266 O   0  0  0  0  0  0  0  0  0  0  0  0
  137.7298   33.0751  -13.4464 O   0  0  0  0  0  0  0  0  0  0  0  0
  132.4036   37.6605  -11.6821 O   0  0  0  0  0  0  0  0  0  0  0  0
  2  1  1  0
  1 13  1  0
  1 14  2  0
  3  2  2  0
 16  2  1  0
  4  3  1  0
  5  4  1  0
  4 15  1  6
  5  6  1  0
  5 12  1  1
  6  7  1  0
  6 16  1  6
  7  8  1  0
  7 17  1  6
  8  9  1  0
  8 18  1  1
  9 19  1  6
 11 10  1  6
 10 12  1  0
 10 20  2  0
M  END
$$$$
