
     RDKit          3D

 20 20  0  0  0  0  0  0  0  0999 V2000
  127.9061   35.4921  -10.5633 C   0  0  0  0  0  0  0  0  0  0  0  0
  128.9732   34.6314  -11.0569 C   0  0  0  0  0  0  0  0  0  0  0  0
  129.3924   33.6556  -10.3014 C   0  0  0  0  0  0  0  0  0  0  0  0
  130.4638   32.7430  -10.7250 C   0  0  1  0  0  0  0  0  0  0  0  0
  131.3049   33.3080  -11.8463 C   0  0  2  0  0  0  0  0  0  0  0  0
  130.4471   33.9249  -12.9066 C   0  0  2  0  0  0  0  0  0  0  0  0
  131.2667   34.6544  -13.9228 C   0  0  1  0  0  0  0  0  0  0  0  0
  130.4867   35.3094  -15.0182 C   0  0  1  0  0  0  0  0  0  0  0  0
  131.3438   35.8539  -16.1336 C   0  0  0  0  0  0  0  0  0  0  0  0
  133.5231   32.2032  -12.3060 C   0  0  0  0  0  0  0  0  0  0  0  0
  134.3606   31.0395  -12.6861 C   0  0  0  0  0  0  0  0  0  0  0  0
  132.1129   32.2014  -12.3609 N   0  0  0  0  0  0  0  0  0  0  0  0
  127.3507   35.2611   -9.3048 O   0  0  0  0  0  0  0  0  0  0  0  0
  127.4719   36.4467  -11.2539 O   0  0  0  0  0  0  0  0  0  0  0  0
  131.3239   32.4594   -9.6646 O   0  0  0  0  0  0  0  0  0  0  0  0
  129.5578   34.8139  -12.3010 O   0  0  0  0  0  0  0  0  0  0  0  0
  132.1241   35.5884  -13.3359 O   0  0  0  0  0  0  0  0  0  0  0  0
  129.6579   34.3435  -15.6069 O   0  0  0  0  0  0  0  0  0  0  0  0
  131.9630   34.7571  -16.7549 O   0  0  0  0  0  0  0  0  0  0  0  0
  134.1073   33.2437  -11.9148 O   0  0  0  0  0  0  0  0  0  0  0  0
  2  1  1  0
  1 13  1  0
  1 14  2  0
  3  2  2  0
 16  2  1  0
  4  3  1  0
  5  4  1  0
  4 15  1  1
  5  6  1  0
  5 12  1  6
  6  7  1  0
  6 16  1  1
  7  8  1  0
  7 17  1  1
  8  9  1  0
  8 18  1  6
  9 19  1  0
 10 11  1  0
 10 12  1  0
 10 20  2  0
M  END
$$$$
