
     RDKit          3D

 20 20  0  0  0  0  0  0  0  0999 V2000
  127.1339   34.6501  -10.4828 C   0  0  0  0  0  0  0  0  0  0  0  0
  128.5281   34.4936  -10.8763 C   0  0  0  0  0  0  0  0  0  0  0  0
  129.4532   35.0426  -10.1404 C   0  0  0  0  0  0  0  0  0  0  0  0
  130.8817   34.9318  -10.4680 C   0  0  1  0  0  0  0  0  0  0  0  0
  131.1239   34.5525  -11.9107 C   0  0  2  0  0  0  0  0  0  0  0  0
  130.2170   33.4402  -12.3360 C   0  0  2  0  0  0  0  0  0  0  0  0
  130.3101   33.1855  -13.8068 C   0  0  1  0  0  0  0  0  0  0  0  0
  129.4689   32.0565  -14.3115 C   0  0  1  0  0  0  0  0  0  0  0  0
  129.7731   31.6602  -15.7348 C   0  0  0  0  0  0  0  0  0  0  0  0
  133.4559   34.9244  -12.7915 C   0  0  0  0  0  0  0  0  0  0  0  0
  134.8864   34.5599  -12.9367 C   0  0  0  0  0  0  0  0  0  0  0  0
  132.5372   34.1864  -12.0149 N   0  0  0  0  0  0  0  0  0  0  0  0
  126.1282   34.0215  -11.2169 O   0  0  0  0  0  0  0  0  0  0  0  0
  126.8160   35.3457   -9.4869 O   0  0  0  0  0  0  0  0  0  0  0  0
  131.5392   36.1405  -10.2416 O   0  0  0  0  0  0  0  0  0  0  0  0
  128.9049   33.7818  -12.0051 O   0  0  0  0  0  0  0  0  0  0  0  0
  130.0502   34.3347  -14.5577 O   0  0  0  0  0  0  0  0  0  0  0  0
  129.7387   30.9231  -13.5310 O   0  0  0  0  0  0  0  0  0  0  0  0
  128.9591   32.4454  -16.5676 O   0  0  0  0  0  0  0  0  0  0  0  0
  133.0466   35.9466  -13.3952 O   0  0  0  0  0  0  0  0  0  0  0  0
  2  1  1  0
  1 13  1  0
  1 14  2  0
  3  2  2  0
 16  2  1  0
  4  3  1  0
  5  4  1  0
  4 15  1  6
  5  6  1  0
  5 12  1  1
  6  7  1  0
  6 16  1  6
  7  8  1  0
  7 17  1  6
  8  9  1  0
  8 18  1  1
  9 19  1  0
 10 11  1  0
 10 12  1  0
 10 20  2  0
M  END
$$$$
