
     RDKit          3D

 20 20  0  0  0  0  0  0  0  0999 V2000
  136.2269   34.1348   -8.4119 C   0  0  0  0  0  0  0  0  0  0  0  0
  135.2113   33.8427   -9.4452 C   0  0  0  0  0  0  0  0  0  0  0  0
  135.0852   32.6258   -9.9110 C   0  0  0  0  0  0  0  0  0  0  0  0
  134.0900   32.2815  -10.9399 C   0  0  1  0  0  0  0  0  0  0  0  0
  133.6188   33.5261  -11.6689 C   0  0  2  0  0  0  0  0  0  0  0  0
  133.2246   34.4884  -10.5965 C   0  0  2  0  0  0  0  0  0  0  0  0
  132.4938   35.6931  -11.0202 C   0  0  1  0  0  0  0  0  0  0  0  0
  131.9088   36.5524   -9.9430 C   0  0  1  0  0  0  0  0  0  0  0  0
  131.0905   37.7081  -10.4707 C   0  0  0  0  0  0  0  0  0  0  0  0
  132.5934   33.5058  -13.8984 C   0  0  0  0  0  0  0  0  0  0  0  0
  131.5921   32.9515  -14.8605 C   0  0  0  0  0  0  0  0  0  0  0  0
  132.5524   33.1270  -12.5296 N   0  0  0  0  0  0  0  0  0  0  0  0
  136.2913   35.3968   -7.8404 O   0  0  0  0  0  0  0  0  0  0  0  0
  137.0094   33.2215   -8.0790 O   0  0  0  0  0  0  0  0  0  0  0  0
  134.6938   31.3780  -11.8137 O   0  0  0  0  0  0  0  0  0  0  0  0
  134.4015   34.8477   -9.9157 O   0  0  0  0  0  0  0  0  0  0  0  0
  133.2439   36.4963  -11.9174 O   0  0  0  0  0  0  0  0  0  0  0  0
  131.2854   35.8814   -8.9180 O   0  0  0  0  0  0  0  0  0  0  0  0
  132.0038   38.5921  -11.0955 O   0  0  0  0  0  0  0  0  0  0  0  0
  133.4577   34.3119  -14.3637 O   0  0  0  0  0  0  0  0  0  0  0  0
  2  1  1  0
  1 13  1  0
  1 14  2  0
  3  2  2  0
 16  2  1  0
  4  3  1  0
  5  4  1  0
  4 15  1  6
  5  6  1  0
  5 12  1  6
  6  7  1  0
  6 16  1  6
  7  8  1  0
  7 17  1  1
  8  9  1  0
  8 18  1  1
  9 19  1  6
 11 10  1  6
 10 12  1  0
 10 20  2  0
M  END
$$$$
