
     RDKit          3D

 20 20  0  0  0  0  0  0  0  0999 V2000
  134.0117   31.1193  -13.6544 C   0  0  0  0  0  0  0  0  0  0  0  0
  133.3035   32.3313  -13.1919 C   0  0  0  0  0  0  0  0  0  0  0  0
  133.5815   32.8423  -12.0191 C   0  0  0  0  0  0  0  0  0  0  0  0
  132.9057   34.0476  -11.5112 C   0  0  1  0  0  0  0  0  0  0  0  0
  131.6110   34.2944  -12.2630 C   0  0  2  0  0  0  0  0  0  0  0  0
  131.9773   34.2450  -13.7104 C   0  0  2  0  0  0  0  0  0  0  0  0
  130.9585   34.6990  -14.6699 C   0  0  1  0  0  0  0  0  0  0  0  0
  131.3356   34.7003  -16.1186 C   0  0  1  0  0  0  0  0  0  0  0  0
  130.1790   35.0025  -17.0430 C   0  0  0  0  0  0  0  0  0  0  0  0
  129.8851   35.5902  -11.0948 C   0  0  0  0  0  0  0  0  0  0  0  0
  129.3736   36.8858  -10.5512 C   0  0  0  0  0  0  0  0  0  0  0  0
  131.1055   35.5541  -11.8214 N   0  0  0  0  0  0  0  0  0  0  0  0
  133.7489   30.6010  -14.9137 O   0  0  0  0  0  0  0  0  0  0  0  0
  134.8390   30.5897  -12.8848 O   0  0  0  0  0  0  0  0  0  0  0  0
  132.6740   33.8498  -10.1505 O   0  0  0  0  0  0  0  0  0  0  0  0
  132.3547   32.9199  -13.9923 O   0  0  0  0  0  0  0  0  0  0  0  0
  129.7171   34.0335  -14.5000 O   0  0  0  0  0  0  0  0  0  0  0  0
  132.4721   35.4045  -16.4380 O   0  0  0  0  0  0  0  0  0  0  0  0
  129.8016   36.3432  -16.7859 O   0  0  0  0  0  0  0  0  0  0  0  0
  129.1842   34.5540  -10.8748 O   0  0  0  0  0  0  0  0  0  0  0  0
  2  1  1  0
  1 13  1  0
  1 14  2  0
  3  2  2  0
 16  2  1  0
  4  3  1  0
  5  4  1  0
  4 15  1  1
  5  6  1  0
  5 12  1  1
  6  7  1  0
  6 16  1  6
  7  8  1  0
  7 17  1  6
  8  9  1  0
  8 18  1  1
  9 19  1  6
 11 10  1  6
 10 12  1  0
 10 20  2  0
M  END
$$$$
