
     RDKit          3D

 20 20  0  0  0  0  0  0  0  0999 V2000
  135.8223   31.2029  -11.7211 C   0  0  0  0  0  0  0  0  0  0  0  0
  135.1486   32.4325  -11.2537 C   0  0  0  0  0  0  0  0  0  0  0  0
  135.4815   32.9625  -10.1039 C   0  0  0  0  0  0  0  0  0  0  0  0
  134.8421   34.1860   -9.5924 C   0  0  1  0  0  0  0  0  0  0  0  0
  133.5201   34.4347  -10.2943 C   0  0  2  0  0  0  0  0  0  0  0  0
  133.8248   34.3525  -11.7544 C   0  0  2  0  0  0  0  0  0  0  0  0
  132.7722   34.8009  -12.6796 C   0  0  1  0  0  0  0  0  0  0  0  0
  133.0276   34.6236  -14.1439 C   0  0  1  0  0  0  0  0  0  0  0  0
  131.8019   34.8405  -15.0008 C   0  0  0  0  0  0  0  0  0  0  0  0
  131.7052   35.8304   -9.4108 C   0  0  0  0  0  0  0  0  0  0  0  0
  131.2322   37.1077   -8.7940 C   0  0  0  0  0  0  0  0  0  0  0  0
  133.0486   35.7090   -9.8572 N   0  0  0  0  0  0  0  0  0  0  0  0
  135.4739   30.6425  -12.9410 O   0  0  0  0  0  0  0  0  0  0  0  0
  136.6994   30.6971  -10.9917 O   0  0  0  0  0  0  0  0  0  0  0  0
  134.6653   34.0175   -8.2195 O   0  0  0  0  0  0  0  0  0  0  0  0
  134.1743   33.0175  -12.0255 O   0  0  0  0  0  0  0  0  0  0  0  0
  131.4975   34.2724  -12.3495 O   0  0  0  0  0  0  0  0  0  0  0  0
  134.1421   35.2603  -14.6358 O   0  0  0  0  0  0  0  0  0  0  0  0
  131.4667   36.2113  -14.8792 O   0  0  0  0  0  0  0  0  0  0  0  0
  130.8595   34.8878   -9.5091 O   0  0  0  0  0  0  0  0  0  0  0  0
  2  1  1  0
  1 13  1  0
  1 14  2  0
  3  2  2  0
 16  2  1  0
  4  3  1  0
  5  4  1  0
  4 15  1  1
  5  6  1  0
  5 12  1  6
  6  7  1  0
  6 16  1  6
  7  8  1  0
  7 17  1  1
  8  9  1  0
  8 18  1  6
  9 19  1  6
 11 10  1  6
 10 12  1  0
 10 20  2  0
M  END
$$$$
