
     RDKit          3D

 20 20  0  0  0  0  0  0  0  0999 V2000
  136.1035   30.2289  -14.5721 C   0  0  0  0  0  0  0  0  0  0  0  0
  135.3589   31.3430  -13.9999 C   0  0  0  0  0  0  0  0  0  0  0  0
  135.9329   32.0808  -13.0917 C   0  0  0  0  0  0  0  0  0  0  0  0
  135.2509   33.2222  -12.4652 C   0  0  1  0  0  0  0  0  0  0  0  0
  133.7486   33.1633  -12.6196 C   0  0  2  0  0  0  0  0  0  0  0  0
  133.3636   32.7961  -14.0187 C   0  0  2  0  0  0  0  0  0  0  0  0
  131.8939   32.5467  -14.1381 C   0  0  1  0  0  0  0  0  0  0  0  0
  131.4151   32.2114  -15.5148 C   0  0  1  0  0  0  0  0  0  0  0  0
  129.9204   32.3242  -15.6835 C   0  0  0  0  0  0  0  0  0  0  0  0
  132.5534   34.6959  -11.0149 C   0  0  0  0  0  0  0  0  0  0  0  0
  132.0574   36.0241  -10.5791 C   0  0  0  0  0  0  0  0  0  0  0  0
  133.2367   34.4781  -12.2304 N   0  0  0  0  0  0  0  0  0  0  0  0
  135.5234   29.4404  -15.5658 O   0  0  0  0  0  0  0  0  0  0  0  0
  137.2679   29.9614  -14.1857 O   0  0  0  0  0  0  0  0  0  0  0  0
  135.5250   33.2768  -11.0991 O   0  0  0  0  0  0  0  0  0  0  0  0
  134.0622   31.6454  -14.3873 O   0  0  0  0  0  0  0  0  0  0  0  0
  131.4500   31.5742  -13.2385 O   0  0  0  0  0  0  0  0  0  0  0  0
  131.9737   33.1331  -16.4120 O   0  0  0  0  0  0  0  0  0  0  0  0
  129.6075   33.6931  -15.7084 O   0  0  0  0  0  0  0  0  0  0  0  0
  132.3510   33.7160  -10.2562 O   0  0  0  0  0  0  0  0  0  0  0  0
  2  1  1  0
  1 13  1  0
  1 14  2  0
  3  2  2  0
 16  2  1  0
  4  3  1  0
  5  4  1  0
  4 15  1  1
  5  6  1  0
  5 12  1  6
  6  7  1  0
  6 16  1  1
  7  8  1  0
  7 17  1  1
  8  9  1  0
  8 18  1  6
  9 19  1  0
 10 11  1  0
 10 12  1  0
 10 20  2  0
M  END
$$$$
