
     RDKit          3D

 20 20  0  0  0  0  0  0  0  0999 V2000
  162.4460   15.0473  -18.9053 C   0  0  0  0  0  0  0  0  0  0  0  0
  161.9181   16.3499  -19.2894 C   0  0  0  0  0  0  0  0  0  0  0  0
  162.2443   16.8413  -20.4517 C   0  0  0  0  0  0  0  0  0  0  0  0
  161.7547   18.1477  -20.9141 C   0  0  1  0  0  0  0  0  0  0  0  0
  161.2592   19.0206  -19.7843 C   0  0  2  0  0  0  0  0  0  0  0  0
  160.3990   18.2424  -18.8382 C   0  0  2  0  0  0  0  0  0  0  0  0
  160.0608   19.0394  -17.6187 C   0  0  1  0  0  0  0  0  0  0  0  0
  159.2891   18.3024  -16.5706 C   0  0  1  0  0  0  0  0  0  0  0  0
  158.9079   19.1532  -15.3848 C   0  0  0  0  0  0  0  0  0  0  0  0
  160.9829   21.4700  -20.3100 C   0  0  0  0  0  0  0  0  0  0  0  0
  160.2935   22.6113  -20.9599 C   0  0  0  0  0  0  0  0  0  0  0  0
  160.5375   20.1340  -20.4021 N   0  0  0  0  0  0  0  0  0  0  0  0
  162.0529   14.4639  -17.7009 O   0  0  0  0  0  0  0  0  0  0  0  0
  163.2552   14.4330  -19.6431 O   0  0  0  0  0  0  0  0  0  0  0  0
  162.7629   18.8528  -21.5706 O   0  0  0  0  0  0  0  0  0  0  0  0
  161.0816   17.0844  -18.4626 O   0  0  0  0  0  0  0  0  0  0  0  0
  161.1907   19.6254  -17.0425 O   0  0  0  0  0  0  0  0  0  0  0  0
  158.0816   17.8685  -17.1364 O   0  0  0  0  0  0  0  0  0  0  0  0
  157.9643   20.0918  -15.8333 O   0  0  0  0  0  0  0  0  0  0  0  0
  162.0186   21.7128  -19.6429 O   0  0  0  0  0  0  0  0  0  0  0  0
  2  1  1  0
  1 13  1  0
  1 14  2  0
  3  2  2  0
 16  2  1  0
  4  3  1  0
  5  4  1  0
  4 15  1  1
  5  6  1  0
  5 12  1  6
  6  7  1  0
  6 16  1  1
  7  8  1  0
  7 17  1  1
  8  9  1  0
  8 18  1  6
  9 19  1  0
 10 11  1  0
 10 12  1  0
 10 20  2  0
M  END
$$$$
