
     RDKit          3D

 20 20  0  0  0  0  0  0  0  0999 V2000
  127.2035   35.0585  -11.5211 C   0  0  0  0  0  0  0  0  0  0  0  0
  128.5859   34.5798  -11.7312 C   0  0  0  0  0  0  0  0  0  0  0  0
  129.3542   34.3307  -10.7009 C   0  0  0  0  0  0  0  0  0  0  0  0
  130.7379   33.8522  -10.8549 C   0  0  1  0  0  0  0  0  0  0  0  0
  131.2537   34.1412  -12.2523 C   0  0  2  0  0  0  0  0  0  0  0  0
  130.2118   33.6043  -13.1784 C   0  0  2  0  0  0  0  0  0  0  0  0
  130.5667   33.5251  -14.6042 C   0  0  1  0  0  0  0  0  0  0  0  0
  129.5012   33.0651  -15.5497 C   0  0  1  0  0  0  0  0  0  0  0  0
  129.8958   33.1766  -17.0041 C   0  0  0  0  0  0  0  0  0  0  0  0
  133.6994   34.3171  -12.3528 C   0  0  0  0  0  0  0  0  0  0  0  0
  135.0418   33.6883  -12.1577 C   0  0  0  0  0  0  0  0  0  0  0  0
  132.5294   33.5110  -12.3650 N   0  0  0  0  0  0  0  0  0  0  0  0
  126.3478   35.2027  -12.6030 O   0  0  0  0  0  0  0  0  0  0  0  0
  126.8414   35.3230  -10.3566 O   0  0  0  0  0  0  0  0  0  0  0  0
  131.5079   34.4940   -9.8856 O   0  0  0  0  0  0  0  0  0  0  0  0
  129.0631   34.3972  -13.0064 O   0  0  0  0  0  0  0  0  0  0  0  0
  131.1479   34.7259  -15.0870 O   0  0  0  0  0  0  0  0  0  0  0  0
  128.9156   31.8589  -15.2467 O   0  0  0  0  0  0  0  0  0  0  0  0
  130.8627   32.1676  -17.2344 O   0  0  0  0  0  0  0  0  0  0  0  0
  133.6679   35.5781  -12.5027 O   0  0  0  0  0  0  0  0  0  0  0  0
  2  1  1  0
  1 13  1  0
  1 14  2  0
  3  2  2  0
 16  2  1  0
  4  3  1  0
  5  4  1  0
  4 15  1  1
  5  6  1  0
  5 12  1  6
  6  7  1  0
  6 16  1  6
  7  8  1  0
  7 17  1  6
  8  9  1  0
  8 18  1  1
  9 19  1  6
 11 10  1  6
 10 12  1  0
 10 20  2  0
M  END
$$$$
