
     RDKit          3D

 20 20  0  0  0  0  0  0  0  0999 V2000
  134.2133   30.6157  -12.5103 C   0  0  0  0  0  0  0  0  0  0  0  0
  134.4827   31.8781  -11.7903 C   0  0  0  0  0  0  0  0  0  0  0  0
  135.6107   32.0331  -11.1442 C   0  0  0  0  0  0  0  0  0  0  0  0
  135.9286   33.2700  -10.4116 C   0  0  1  0  0  0  0  0  0  0  0  0
  134.6679   34.0651  -10.1279 C   0  0  2  0  0  0  0  0  0  0  0  0
  133.9679   34.1810  -11.4425 C   0  0  2  0  0  0  0  0  0  0  0  0
  132.8361   35.1186  -11.5127 C   0  0  1  0  0  0  0  0  0  0  0  0
  132.1455   35.2594  -12.8334 C   0  0  1  0  0  0  0  0  0  0  0  0
  130.9407   36.1705  -12.7902 C   0  0  0  0  0  0  0  0  0  0  0  0
  134.4678   35.7533   -8.3580 C   0  0  0  0  0  0  0  0  0  0  0  0
  134.8879   37.0466   -7.7362 C   0  0  0  0  0  0  0  0  0  0  0  0
  135.0778   35.3098   -9.5621 N   0  0  0  0  0  0  0  0  0  0  0  0
  133.0617   30.4843  -13.2718 O   0  0  0  0  0  0  0  0  0  0  0  0
  135.0443   29.6903  -12.4097 O   0  0  0  0  0  0  0  0  0  0  0  0
  136.5719   32.8982   -9.2317 O   0  0  0  0  0  0  0  0  0  0  0  0
  133.5499   32.8865  -11.7995 O   0  0  0  0  0  0  0  0  0  0  0  0
  131.8762   34.8889  -10.4937 O   0  0  0  0  0  0  0  0  0  0  0  0
  132.9633   35.5068  -13.9102 O   0  0  0  0  0  0  0  0  0  0  0  0
  129.9108   35.4412  -12.1472 O   0  0  0  0  0  0  0  0  0  0  0  0
  133.5596   35.0938   -7.7631 O   0  0  0  0  0  0  0  0  0  0  0  0
  2  1  1  0
  1 13  1  0
  1 14  2  0
  3  2  2  0
 16  2  1  0
  4  3  1  0
  5  4  1  0
  4 15  1  1
  5  6  1  0
  5 12  1  6
  6  7  1  0
  6 16  1  1
  7  8  1  0
  7 17  1  1
  8  9  1  0
  8 18  1  6
  9 19  1  6
 11 10  1  6
 10 12  1  0
 10 20  2  0
M  END
$$$$
