
     RDKit          3D

 20 20  0  0  0  0  0  0  0  0999 V2000
  131.0230   31.3465  -12.1181 C   0  0  0  0  0  0  0  0  0  0  0  0
  132.3027   32.0836  -12.0601 C   0  0  0  0  0  0  0  0  0  0  0  0
  132.5560   32.8731  -11.0470 C   0  0  0  0  0  0  0  0  0  0  0  0
  133.8147   33.6294  -10.9406 C   0  0  1  0  0  0  0  0  0  0  0  0
  134.4942   33.7342  -12.2933 C   0  0  2  0  0  0  0  0  0  0  0  0
  134.5501   32.3367  -12.8182 C   0  0  2  0  0  0  0  0  0  0  0  0
  135.3837   32.1066  -14.0087 C   0  0  1  0  0  0  0  0  0  0  0  0
  135.4891   30.6994  -14.5082 C   0  0  1  0  0  0  0  0  0  0  0  0
  136.3907   30.5523  -15.7120 C   0  0  0  0  0  0  0  0  0  0  0  0
  136.0379   35.6081  -12.6502 C   0  0  0  0  0  0  0  0  0  0  0  0
  137.3248   36.3092  -12.3534 C   0  0  0  0  0  0  0  0  0  0  0  0
  135.7691   34.3374  -12.0743 N   0  0  0  0  0  0  0  0  0  0  0  0
  130.8143   30.3966  -13.1068 O   0  0  0  0  0  0  0  0  0  0  0  0
  130.1537   31.6055  -11.2611 O   0  0  0  0  0  0  0  0  0  0  0  0
  133.4991   34.8883  -10.4310 O   0  0  0  0  0  0  0  0  0  0  0  0
  133.2244   31.9398  -13.0686 O   0  0  0  0  0  0  0  0  0  0  0  0
  135.0478   32.9708  -15.0825 O   0  0  0  0  0  0  0  0  0  0  0  0
  135.7193   29.7421  -13.5489 O   0  0  0  0  0  0  0  0  0  0  0  0
  136.2254   29.2241  -16.1753 O   0  0  0  0  0  0  0  0  0  0  0  0
  135.2231   36.1988  -13.4252 O   0  0  0  0  0  0  0  0  0  0  0  0
  2  1  1  0
  1 13  1  0
  1 14  2  0
  3  2  2  0
 16  2  1  0
  4  3  1  0
  5  4  1  0
  4 15  1  6
  5  6  1  0
  5 12  1  1
  6  7  1  0
  6 16  1  6
  7  8  1  0
  7 17  1  6
  8  9  1  0
  8 18  1  1
  9 19  1  6
 11 10  1  6
 10 12  1  0
 10 20  2  0
M  END
$$$$
