
     RDKit          3D

 20 20  0  0  0  0  0  0  0  0999 V2000
  133.3524   31.3931  -12.3082 C   0  0  0  0  0  0  0  0  0  0  0  0
  133.0109   32.8262  -12.1904 C   0  0  0  0  0  0  0  0  0  0  0  0
  133.8712   33.6613  -11.6645 C   0  0  0  0  0  0  0  0  0  0  0  0
  133.5810   35.0978  -11.5242 C   0  0  1  0  0  0  0  0  0  0  0  0
  132.0882   35.3552  -11.6122 C   0  0  2  0  0  0  0  0  0  0  0  0
  131.6387   34.6603  -12.8559 C   0  0  2  0  0  0  0  0  0  0  0  0
  130.2745   34.9515  -13.3241 C   0  0  1  0  0  0  0  0  0  0  0  0
  129.8738   34.3923  -14.6536 C   0  0  1  0  0  0  0  0  0  0  0  0
  128.4542   34.7295  -15.0470 C   0  0  0  0  0  0  0  0  0  0  0  0
  131.2980   37.3988  -10.5070 C   0  0  0  0  0  0  0  0  0  0  0  0
  131.1285   38.8841  -10.4800 C   0  0  0  0  0  0  0  0  0  0  0  0
  131.9089   36.7711  -11.6257 N   0  0  0  0  0  0  0  0  0  0  0  0
  132.4832   30.5238  -12.9501 O   0  0  0  0  0  0  0  0  0  0  0  0
  134.4312   31.0015  -11.8181 O   0  0  0  0  0  0  0  0  0  0  0  0
  134.0959   35.5057  -10.2942 O   0  0  0  0  0  0  0  0  0  0  0  0
  131.7920   33.2803  -12.6322 O   0  0  0  0  0  0  0  0  0  0  0  0
  129.2881   34.6337  -12.3552 O   0  0  0  0  0  0  0  0  0  0  0  0
  130.7713   34.5859  -15.6766 O   0  0  0  0  0  0  0  0  0  0  0  0
  128.2472   34.1573  -16.3260 O   0  0  0  0  0  0  0  0  0  0  0  0
  130.8756   36.7502   -9.4998 O   0  0  0  0  0  0  0  0  0  0  0  0
  2  1  1  0
  1 13  1  0
  1 14  2  0
  3  2  2  0
 16  2  1  0
  4  3  1  0
  5  4  1  0
  4 15  1  1
  5  6  1  0
  5 12  1  6
  6  7  1  0
  6 16  1  1
  7  8  1  0
  7 17  1  1
  8  9  1  0
  8 18  1  6
  9 19  1  6
 11 10  1  6
 10 12  1  0
 10 20  2  0
M  END
$$$$
