
     RDKit          3D

 20 20  0  0  0  0  0  0  0  0999 V2000
  162.4077   16.2153  -19.9044 C   0  0  0  0  0  0  0  0  0  0  0  0
  161.5919   17.4158  -19.7760 C   0  0  0  0  0  0  0  0  0  0  0  0
  161.9032   18.4648  -20.4841 C   0  0  0  0  0  0  0  0  0  0  0  0
  161.1320   19.7139  -20.4127 C   0  0  1  0  0  0  0  0  0  0  0  0
  160.2899   19.8114  -19.1615 C   0  0  2  0  0  0  0  0  0  0  0  0
  159.5720   18.5258  -18.8924 C   0  0  2  0  0  0  0  0  0  0  0  0
  158.8906   18.5437  -17.5612 C   0  0  1  0  0  0  0  0  0  0  0  0
  158.1723   17.2834  -17.1970 C   0  0  1  0  0  0  0  0  0  0  0  0
  157.4144   17.3694  -15.8958 C   0  0  0  0  0  0  0  0  0  0  0  0
  159.4728   22.1390  -18.6447 C   0  0  0  0  0  0  0  0  0  0  0  0
  158.5269   23.2710  -18.7996 C   0  0  0  0  0  0  0  0  0  0  0  0
  159.3677   20.9297  -19.3647 N   0  0  0  0  0  0  0  0  0  0  0  0
  162.0482   15.0526  -19.2230 O   0  0  0  0  0  0  0  0  0  0  0  0
  163.4375   16.2057  -20.6227 O   0  0  0  0  0  0  0  0  0  0  0  0
  161.9778   20.8224  -20.4301 O   0  0  0  0  0  0  0  0  0  0  0  0
  160.4970   17.4813  -18.9276 O   0  0  0  0  0  0  0  0  0  0  0  0
  159.7614   18.9011  -16.5287 O   0  0  0  0  0  0  0  0  0  0  0  0
  157.2117   17.0228  -18.1848 O   0  0  0  0  0  0  0  0  0  0  0  0
  156.3610   18.2782  -16.0880 O   0  0  0  0  0  0  0  0  0  0  0  0
  160.4164   22.2705  -17.8266 O   0  0  0  0  0  0  0  0  0  0  0  0
  2  1  1  0
  1 13  1  0
  1 14  2  0
  3  2  2  0
 16  2  1  0
  4  3  1  0
  5  4  1  0
  4 15  1  1
  5  6  1  0
  5 12  1  6
  6  7  1  0
  6 16  1  1
  7  8  1  0
  7 17  1  1
  8  9  1  0
  8 18  1  6
  9 19  1  0
 10 11  1  0
 10 12  1  0
 10 20  2  0
M  END
$$$$
