
     RDKit          3D

 20 20  0  0  0  0  0  0  0  0999 V2000
  154.3424   22.2703  -15.0099 C   0  0  0  0  0  0  0  0  0  0  0  0
  155.1659   22.1566  -16.2319 C   0  0  0  0  0  0  0  0  0  0  0  0
  154.8682   22.8698  -17.2885 C   0  0  0  0  0  0  0  0  0  0  0  0
  155.6556   22.7942  -18.5302 C   0  0  1  0  0  0  0  0  0  0  0  0
  156.4808   21.5214  -18.5662 C   0  0  2  0  0  0  0  0  0  0  0  0
  157.2093   21.4842  -17.2625 C   0  0  2  0  0  0  0  0  0  0  0  0
  158.2782   20.4822  -17.1265 C   0  0  1  0  0  0  0  0  0  0  0  0
  159.1679   20.5897  -15.9275 C   0  0  1  0  0  0  0  0  0  0  0  0
  160.2165   19.5039  -15.8549 C   0  0  0  0  0  0  0  0  0  0  0  0
  157.0864   20.7258  -20.8073 C   0  0  0  0  0  0  0  0  0  0  0  0
  157.9135   20.8321  -22.0484 C   0  0  0  0  0  0  0  0  0  0  0  0
  157.3239   21.6029  -19.7150 N   0  0  0  0  0  0  0  0  0  0  0  0
  153.3352   23.2210  -14.9387 O   0  0  0  0  0  0  0  0  0  0  0  0
  154.5821   21.4941  -14.0626 O   0  0  0  0  0  0  0  0  0  0  0  0
  154.7562   22.8476  -19.5944 O   0  0  0  0  0  0  0  0  0  0  0  0
  156.2421   21.3030  -16.2578 O   0  0  0  0  0  0  0  0  0  0  0  0
  157.7956   19.1534  -17.2458 O   0  0  0  0  0  0  0  0  0  0  0  0
  159.6770   21.8410  -15.6734 O   0  0  0  0  0  0  0  0  0  0  0  0
  160.9758   19.7590  -14.6868 O   0  0  0  0  0  0  0  0  0  0  0  0
  156.1852   19.8309  -20.7879 O   0  0  0  0  0  0  0  0  0  0  0  0
  2  1  1  0
  1 13  1  0
  1 14  2  0
  3  2  2  0
 16  2  1  0
  4  3  1  0
  5  4  1  0
  4 15  1  6
  5  6  1  0
  5 12  1  6
  6  7  1  0
  6 16  1  1
  7  8  1  0
  7 17  1  1
  8  9  1  0
  8 18  1  6
  9 19  1  6
 11 10  1  6
 10 12  1  0
 10 20  2  0
M  END
$$$$
