
     RDKit          3D

 20 20  0  0  0  0  0  0  0  0999 V2000
  156.3203   20.5683  -20.6829 C   0  0  0  0  0  0  0  0  0  0  0  0
  156.9008   19.9881  -19.4790 C   0  0  0  0  0  0  0  0  0  0  0  0
  156.1104   19.4201  -18.6122 C   0  0  0  0  0  0  0  0  0  0  0  0
  156.6160   18.8118  -17.3735 C   0  0  1  0  0  0  0  0  0  0  0  0
  157.9951   19.3041  -16.9998 C   0  0  2  0  0  0  0  0  0  0  0  0
  158.9008   19.3286  -18.1914 C   0  0  2  0  0  0  0  0  0  0  0  0
  160.2044   19.9917  -17.8789 C   0  0  1  0  0  0  0  0  0  0  0  0
  161.2162   19.9568  -18.9799 C   0  0  1  0  0  0  0  0  0  0  0  0
  162.5192   20.6313  -18.6303 C   0  0  0  0  0  0  0  0  0  0  0  0
  158.9856   18.8939  -14.7189 C   0  0  0  0  0  0  0  0  0  0  0  0
  159.4810   18.0129  -13.6332 C   0  0  0  0  0  0  0  0  0  0  0  0
  158.4864   18.4127  -15.9481 N   0  0  0  0  0  0  0  0  0  0  0  0
  157.1505   21.0912  -21.6744 O   0  0  0  0  0  0  0  0  0  0  0  0
  155.0762   20.6078  -20.8481 O   0  0  0  0  0  0  0  0  0  0  0  0
  155.7712   19.0929  -16.3003 O   0  0  0  0  0  0  0  0  0  0  0  0
  158.2633   20.0190  -19.2234 O   0  0  0  0  0  0  0  0  0  0  0  0
  160.0343   21.3076  -17.4412 O   0  0  0  0  0  0  0  0  0  0  0  0
  161.5354   18.6167  -19.2423 O   0  0  0  0  0  0  0  0  0  0  0  0
  163.2968   19.6948  -17.9296 O   0  0  0  0  0  0  0  0  0  0  0  0
  159.0148   20.1345  -14.5272 O   0  0  0  0  0  0  0  0  0  0  0  0
  2  1  1  0
  1 13  1  0
  1 14  2  0
  3  2  2  0
 16  2  1  0
  4  3  1  0
  5  4  1  0
  4 15  1  1
  5  6  1  0
  5 12  1  1
  6  7  1  0
  6 16  1  6
  7  8  1  0
  7 17  1  6
  8  9  1  0
  8 18  1  1
  9 19  1  0
 10 11  1  0
 10 12  1  0
 10 20  2  0
M  END
$$$$
