
     RDKit          3D

 20 20  0  0  0  0  0  0  0  0999 V2000
  156.2840   18.8042  -18.0628 C   0  0  0  0  0  0  0  0  0  0  0  0
  157.4635   19.3306  -18.7370 C   0  0  0  0  0  0  0  0  0  0  0  0
  158.3307   18.4920  -19.2306 C   0  0  0  0  0  0  0  0  0  0  0  0
  159.5457   18.9413  -19.9250 C   0  0  1  0  0  0  0  0  0  0  0  0
  159.9063   20.3739  -19.6065 C   0  0  2  0  0  0  0  0  0  0  0  0
  158.6998   21.2585  -19.6577 C   0  0  2  0  0  0  0  0  0  0  0  0
  159.0047   22.6352  -19.1594 C   0  0  1  0  0  0  0  0  0  0  0  0
  157.8322   23.5614  -19.0913 C   0  0  1  0  0  0  0  0  0  0  0  0
  158.2118   25.0200  -19.0322 C   0  0  0  0  0  0  0  0  0  0  0  0
  162.2205   21.1861  -20.1872 C   0  0  0  0  0  0  0  0  0  0  0  0
  163.2868   21.5571  -21.1492 C   0  0  0  0  0  0  0  0  0  0  0  0
  160.9281   20.7729  -20.5755 N   0  0  0  0  0  0  0  0  0  0  0  0
  156.0697   17.4270  -18.0073 O   0  0  0  0  0  0  0  0  0  0  0  0
  155.4482   19.5719  -17.5254 O   0  0  0  0  0  0  0  0  0  0  0  0
  160.6400   18.1511  -19.5745 O   0  0  0  0  0  0  0  0  0  0  0  0
  157.6957   20.6910  -18.8718 O   0  0  0  0  0  0  0  0  0  0  0  0
  159.6579   22.6157  -17.9246 O   0  0  0  0  0  0  0  0  0  0  0  0
  157.0805   23.4073  -20.2651 O   0  0  0  0  0  0  0  0  0  0  0  0
  158.5454   25.3086  -17.6987 O   0  0  0  0  0  0  0  0  0  0  0  0
  162.4890   21.2451  -18.9620 O   0  0  0  0  0  0  0  0  0  0  0  0
  2  1  1  0
  1 13  1  0
  1 14  2  0
  3  2  2  0
 16  2  1  0
  4  3  1  0
  5  4  1  0
  4 15  1  1
  5  6  1  0
  5 12  1  6
  6  7  1  0
  6 16  1  1
  7  8  1  0
  7 17  1  1
  8  9  1  0
  8 18  1  6
  9 19  1  0
 10 11  1  0
 10 12  1  0
 10 20  2  0
M  END
$$$$
