
     RDKit          3D

 20 20  0  0  0  0  0  0  0  0999 V2000
  131.4542   30.9385  -12.6045 C   0  0  0  0  0  0  0  0  0  0  0  0
  132.6141   31.8155  -12.5110 C   0  0  0  0  0  0  0  0  0  0  0  0
  132.5733   32.8240  -11.6864 C   0  0  0  0  0  0  0  0  0  0  0  0
  133.7002   33.7550  -11.5327 C   0  0  1  0  0  0  0  0  0  0  0  0
  134.6594   33.7110  -12.6999 C   0  0  2  0  0  0  0  0  0  0  0  0
  134.9626   32.2998  -13.0966 C   0  0  2  0  0  0  0  0  0  0  0  0
  135.7536   32.2420  -14.3645 C   0  0  1  0  0  0  0  0  0  0  0  0
  136.0147   30.8660  -14.8894 C   0  0  1  0  0  0  0  0  0  0  0  0
  136.8963   30.8388  -16.1130 C   0  0  0  0  0  0  0  0  0  0  0  0
  136.2568   35.6515  -12.8871 C   0  0  0  0  0  0  0  0  0  0  0  0
  137.4905   36.3864  -12.5157 C   0  0  0  0  0  0  0  0  0  0  0  0
  135.8583   34.4397  -12.2831 N   0  0  0  0  0  0  0  0  0  0  0  0
  131.4934   29.8177  -13.4339 O   0  0  0  0  0  0  0  0  0  0  0  0
  130.4102   31.1729  -11.9475 O   0  0  0  0  0  0  0  0  0  0  0  0
  133.2479   35.0690  -11.4178 O   0  0  0  0  0  0  0  0  0  0  0  0
  133.7585   31.6150  -13.2678 O   0  0  0  0  0  0  0  0  0  0  0  0
  135.1908   33.0286  -15.3727 O   0  0  0  0  0  0  0  0  0  0  0  0
  136.7018   30.1419  -13.9045 O   0  0  0  0  0  0  0  0  0  0  0  0
  136.5854   29.6676  -16.8230 O   0  0  0  0  0  0  0  0  0  0  0  0
  135.5319   36.1395  -13.7888 O   0  0  0  0  0  0  0  0  0  0  0  0
  2  1  1  0
  1 13  1  0
  1 14  2  0
  3  2  2  0
 16  2  1  0
  4  3  1  0
  5  4  1  0
  4 15  1  6
  5  6  1  0
  5 12  1  1
  6  7  1  0
  6 16  1  6
  7  8  1  0
  7 17  1  6
  8  9  1  0
  8 18  1  1
  9 19  1  0
 10 11  1  0
 10 12  1  0
 10 20  2  0
M  END
$$$$
