
     RDKit          3D

 20 20  0  0  0  0  0  0  0  0999 V2000
  135.4834   30.8247  -11.8169 C   0  0  0  0  0  0  0  0  0  0  0  0
  135.1246   32.1201  -11.2544 C   0  0  0  0  0  0  0  0  0  0  0  0
  134.2977   32.1596  -10.2477 C   0  0  0  0  0  0  0  0  0  0  0  0
  133.8853   33.4246   -9.6233 C   0  0  1  0  0  0  0  0  0  0  0  0
  134.1228   34.6221  -10.5142 C   0  0  2  0  0  0  0  0  0  0  0  0
  135.4760   34.5611  -11.1513 C   0  0  2  0  0  0  0  0  0  0  0  0
  135.6495   35.6333  -12.1793 C   0  0  1  0  0  0  0  0  0  0  0  0
  136.8167   36.5426  -11.9597 C   0  0  1  0  0  0  0  0  0  0  0  0
  137.0178   37.5516  -13.0626 C   0  0  0  0  0  0  0  0  0  0  0  0
  132.8227   36.6416   -9.7501 C   0  0  0  0  0  0  0  0  0  0  0  0
  132.5824   37.7881   -8.8403 C   0  0  0  0  0  0  0  0  0  0  0  0
  133.9591   35.8082   -9.6724 N   0  0  0  0  0  0  0  0  0  0  0  0
  134.9398   29.6575  -11.2805 O   0  0  0  0  0  0  0  0  0  0  0  0
  136.2796   30.7364  -12.7839 O   0  0  0  0  0  0  0  0  0  0  0  0
  132.5268   33.4049   -9.3095 O   0  0  0  0  0  0  0  0  0  0  0  0
  135.6313   33.3110  -11.7521 O   0  0  0  0  0  0  0  0  0  0  0  0
  135.6966   35.1165  -13.4765 O   0  0  0  0  0  0  0  0  0  0  0  0
  136.5813   37.2878  -10.7952 O   0  0  0  0  0  0  0  0  0  0  0  0
  135.7661   38.1300  -13.3297 O   0  0  0  0  0  0  0  0  0  0  0  0
  131.9643   36.4051  -10.6355 O   0  0  0  0  0  0  0  0  0  0  0  0
  2  1  1  0
  1 13  1  0
  1 14  2  0
  3  2  2  0
 16  2  1  0
  4  3  1  0
  5  4  1  0
  4 15  1  6
  5  6  1  0
  5 12  1  1
  6  7  1  0
  6 16  1  6
  7  8  1  0
  7 17  1  6
  8  9  1  0
  8 18  1  1
  9 19  1  0
 10 11  1  0
 10 12  1  0
 10 20  2  0
M  END
$$$$
