
     RDKit          3D

 20 20  0  0  0  0  0  0  0  0999 V2000
  157.4831   17.2054  -16.3637 C   0  0  0  0  0  0  0  0  0  0  0  0
  158.2415   18.2042  -17.1055 C   0  0  0  0  0  0  0  0  0  0  0  0
  158.0980   18.2675  -18.3994 C   0  0  0  0  0  0  0  0  0  0  0  0
  158.8260   19.2455  -19.2203 C   0  0  1  0  0  0  0  0  0  0  0  0
  160.0392   19.8113  -18.5188 C   0  0  2  0  0  0  0  0  0  0  0  0
  159.7213   20.1798  -17.1032 C   0  0  2  0  0  0  0  0  0  0  0  0
  160.9522   20.5589  -16.3431 C   0  0  1  0  0  0  0  0  0  0  0  0
  160.7446   20.8200  -14.8851 C   0  0  1  0  0  0  0  0  0  0  0  0
  161.9738   21.3341  -14.1780 C   0  0  0  0  0  0  0  0  0  0  0  0
  161.7138   20.9904  -19.9877 C   0  0  0  0  0  0  0  0  0  0  0  0
  162.1695   22.1327  -20.8168 C   0  0  0  0  0  0  0  0  0  0  0  0
  160.4778   20.9640  -19.3069 N   0  0  0  0  0  0  0  0  0  0  0  0
  157.5532   17.1702  -14.9711 O   0  0  0  0  0  0  0  0  0  0  0  0
  156.7608   16.3675  -16.9578 O   0  0  0  0  0  0  0  0  0  0  0  0
  159.2678   18.6663  -20.4093 O   0  0  0  0  0  0  0  0  0  0  0  0
  159.1096   19.0889  -16.4838 O   0  0  0  0  0  0  0  0  0  0  0  0
  161.9816   19.6291  -16.5101 O   0  0  0  0  0  0  0  0  0  0  0  0
  159.7758   21.8251  -14.7513 O   0  0  0  0  0  0  0  0  0  0  0  0
  161.6109   21.5870  -12.8450 O   0  0  0  0  0  0  0  0  0  0  0  0
  162.4741   19.9957  -19.8904 O   0  0  0  0  0  0  0  0  0  0  0  0
  2  1  1  0
  1 13  1  0
  1 14  2  0
  3  2  2  0
 16  2  1  0
  4  3  1  0
  5  4  1  0
  4 15  1  6
  5  6  1  0
  5 12  1  6
  6  7  1  0
  6 16  1  1
  7  8  1  0
  7 17  1  1
  8  9  1  0
  8 18  1  6
  9 19  1  0
 10 11  1  0
 10 12  1  0
 10 20  2  0
M  END
$$$$
