
     RDKit          3D

 20 20  0  0  0  0  0  0  0  0999 V2000
  134.2610   30.5914  -13.0891 C   0  0  0  0  0  0  0  0  0  0  0  0
  133.4314   31.8130  -13.0260 C   0  0  0  0  0  0  0  0  0  0  0  0
  133.6770   32.7226  -12.1172 C   0  0  0  0  0  0  0  0  0  0  0  0
  132.8814   33.9568  -12.0113 C   0  0  1  0  0  0  0  0  0  0  0  0
  131.5501   33.8003  -12.7223 C   0  0  2  0  0  0  0  0  0  0  0  0
  131.8863   33.2895  -14.0852 C   0  0  2  0  0  0  0  0  0  0  0  0
  130.8008   33.2815  -15.0786 C   0  0  1  0  0  0  0  0  0  0  0  0
  131.1022   32.6806  -16.4162 C   0  0  1  0  0  0  0  0  0  0  0  0
  129.8737   32.4537  -17.2664 C   0  0  0  0  0  0  0  0  0  0  0  0
  129.5612   35.1712  -12.2899 C   0  0  0  0  0  0  0  0  0  0  0  0
  128.9105   36.5095  -12.1438 C   0  0  0  0  0  0  0  0  0  0  0  0
  130.9161   35.0790  -12.7075 N   0  0  0  0  0  0  0  0  0  0  0  0
  134.0546   29.6646  -14.1000 O   0  0  0  0  0  0  0  0  0  0  0  0
  135.1374   30.4277  -12.2159 O   0  0  0  0  0  0  0  0  0  0  0  0
  132.7050   34.2201  -10.6533 O   0  0  0  0  0  0  0  0  0  0  0  0
  132.4042   31.9924  -13.9203 O   0  0  0  0  0  0  0  0  0  0  0  0
  129.5992   32.7281  -14.5661 O   0  0  0  0  0  0  0  0  0  0  0  0
  132.1331   33.2645  -17.1132 O   0  0  0  0  0  0  0  0  0  0  0  0
  129.6377   33.6661  -17.9595 O   0  0  0  0  0  0  0  0  0  0  0  0
  128.8514   34.1513  -12.0261 O   0  0  0  0  0  0  0  0  0  0  0  0
  2  1  1  0
  1 13  1  0
  1 14  2  0
  3  2  2  0
 16  2  1  0
  4  3  1  0
  5  4  1  0
  4 15  1  1
  5  6  1  0
  5 12  1  6
  6  7  1  0
  6 16  1  1
  7  8  1  0
  7 17  1  1
  8  9  1  0
  8 18  1  6
  9 19  1  6
 11 10  1  6
 10 12  1  0
 10 20  2  0
M  END
$$$$
