
     RDKit          3D

 20 20  0  0  0  0  0  0  0  0999 V2000
  127.3533   35.2373  -10.7720 C   0  0  0  0  0  0  0  0  0  0  0  0
  128.5562   34.5671  -11.2483 C   0  0  0  0  0  0  0  0  0  0  0  0
  128.9935   33.5256  -10.5981 C   0  0  0  0  0  0  0  0  0  0  0  0
  130.1987   32.7937  -11.0129 C   0  0  1  0  0  0  0  0  0  0  0  0
  131.0918   33.6044  -11.9235 C   0  0  2  0  0  0  0  0  0  0  0  0
  130.2941   34.3017  -12.9810 C   0  0  2  0  0  0  0  0  0  0  0  0
  131.1364   35.2555  -13.7669 C   0  0  1  0  0  0  0  0  0  0  0  0
  130.4224   35.9804  -14.8631 C   0  0  1  0  0  0  0  0  0  0  0  0
  131.3361   36.7737  -15.7637 C   0  0  0  0  0  0  0  0  0  0  0  0
  133.4561   32.8036  -12.2711 C   0  0  0  0  0  0  0  0  0  0  0  0
  134.4583   31.8188  -12.7464 C   0  0  0  0  0  0  0  0  0  0  0  0
  132.0680   32.6723  -12.4894 N   0  0  0  0  0  0  0  0  0  0  0  0
  126.7339   34.8062   -9.5989 O   0  0  0  0  0  0  0  0  0  0  0  0
  126.8578   36.2041  -11.4016 O   0  0  0  0  0  0  0  0  0  0  0  0
  130.9620   32.4241   -9.9060 O   0  0  0  0  0  0  0  0  0  0  0  0
  129.2513   34.9981  -12.3681 O   0  0  0  0  0  0  0  0  0  0  0  0
  131.7933   36.1767  -12.9471 O   0  0  0  0  0  0  0  0  0  0  0  0
  129.8005   35.0310  -15.6868 O   0  0  0  0  0  0  0  0  0  0  0  0
  132.1698   35.8552  -16.4225 O   0  0  0  0  0  0  0  0  0  0  0  0
  133.8723   33.8067  -11.6407 O   0  0  0  0  0  0  0  0  0  0  0  0
  2  1  1  0
  1 13  1  0
  1 14  2  0
  3  2  2  0
 16  2  1  0
  4  3  1  0
  5  4  1  0
  4 15  1  1
  5  6  1  0
  5 12  1  6
  6  7  1  0
  6 16  1  1
  7  8  1  0
  7 17  1  1
  8  9  1  0
  8 18  1  6
  9 19  1  0
 10 11  1  0
 10 12  1  0
 10 20  2  0
M  END
$$$$
