
     RDKit          3D

 20 20  0  0  0  0  0  0  0  0999 V2000
  137.0251   31.4416  -12.8788 C   0  0  0  0  0  0  0  0  0  0  0  0
  135.7963   32.1103  -12.4021 C   0  0  0  0  0  0  0  0  0  0  0  0
  134.8732   31.4170  -11.7849 C   0  0  0  0  0  0  0  0  0  0  0  0
  133.6315   32.0341  -11.2901 C   0  0  1  0  0  0  0  0  0  0  0  0
  133.3817   33.3636  -11.9775 C   0  0  2  0  0  0  0  0  0  0  0  0
  134.6572   34.1284  -11.8369 C   0  0  2  0  0  0  0  0  0  0  0  0
  134.6202   35.5548  -12.1962 C   0  0  1  0  0  0  0  0  0  0  0  0
  135.8347   36.3713  -11.8810 C   0  0  1  0  0  0  0  0  0  0  0  0
  135.7590   37.7895  -12.3973 C   0  0  0  0  0  0  0  0  0  0  0  0
  131.1503   34.3746  -12.1229 C   0  0  0  0  0  0  0  0  0  0  0  0
  129.9171   34.9066  -11.4659 C   0  0  0  0  0  0  0  0  0  0  0  0
  132.2571   33.9617  -11.3334 N   0  0  0  0  0  0  0  0  0  0  0  0
  137.1233   30.0589  -12.8353 O   0  0  0  0  0  0  0  0  0  0  0  0
  137.9533   32.1534  -13.3137 O   0  0  0  0  0  0  0  0  0  0  0  0
  132.5958   31.1329  -11.5340 O   0  0  0  0  0  0  0  0  0  0  0  0
  135.6240   33.4577  -12.6072 O   0  0  0  0  0  0  0  0  0  0  0  0
  134.2404   35.7652  -13.5469 O   0  0  0  0  0  0  0  0  0  0  0  0
  136.2809   36.2991  -10.5829 O   0  0  0  0  0  0  0  0  0  0  0  0
  136.9892   38.4043  -12.0586 O   0  0  0  0  0  0  0  0  0  0  0  0
  131.1499   34.3153  -13.3917 O   0  0  0  0  0  0  0  0  0  0  0  0
  2  1  1  0
  1 13  1  0
  1 14  2  0
  3  2  2  0
 16  2  1  0
  4  3  1  0
  5  4  1  0
  4 15  1  6
  5  6  1  0
  5 12  1  1
  6  7  1  0
  6 16  1  6
  7  8  1  0
  7 17  1  6
  8  9  1  0
  8 18  1  1
  9 19  1  6
 11 10  1  6
 10 12  1  0
 10 20  2  0
M  END
$$$$
