
     RDKit          3D

 20 20  0  0  0  0  0  0  0  0999 V2000
  134.7448   30.9947  -13.7342 C   0  0  0  0  0  0  0  0  0  0  0  0
  134.1821   32.2442  -13.2390 C   0  0  0  0  0  0  0  0  0  0  0  0
  134.7026   32.7887  -12.1753 C   0  0  0  0  0  0  0  0  0  0  0  0
  134.1938   34.0474  -11.6122 C   0  0  1  0  0  0  0  0  0  0  0  0
  132.7929   34.3727  -12.0765 C   0  0  2  0  0  0  0  0  0  0  0  0
  132.6477   34.1525  -13.5500 C   0  0  2  0  0  0  0  0  0  0  0  0
  131.2241   34.2843  -13.9889 C   0  0  1  0  0  0  0  0  0  0  0  0
  131.0018   34.1880  -15.4649 C   0  0  1  0  0  0  0  0  0  0  0  0
  129.5569   34.3319  -15.8732 C   0  0  0  0  0  0  0  0  0  0  0  0
  131.6446   36.1139  -10.6616 C   0  0  0  0  0  0  0  0  0  0  0  0
  131.3674   37.5137  -10.2568 C   0  0  0  0  0  0  0  0  0  0  0  0
  132.5387   35.7628  -11.6957 N   0  0  0  0  0  0  0  0  0  0  0  0
  134.2362   30.4137  -14.8958 O   0  0  0  0  0  0  0  0  0  0  0  0
  135.6871   30.4246  -13.1312 O   0  0  0  0  0  0  0  0  0  0  0  0
  134.1664   33.9939  -10.2190 O   0  0  0  0  0  0  0  0  0  0  0  0
  133.1134   32.8736  -13.8590 O   0  0  0  0  0  0  0  0  0  0  0  0
  130.3841   33.3835  -13.3294 O   0  0  0  0  0  0  0  0  0  0  0  0
  131.6831   35.2465  -16.0829 O   0  0  0  0  0  0  0  0  0  0  0  0
  129.2939   35.7065  -15.9920 O   0  0  0  0  0  0  0  0  0  0  0  0
  131.0479   35.1960  -10.0466 O   0  0  0  0  0  0  0  0  0  0  0  0
  2  1  1  0
  1 13  1  0
  1 14  2  0
  3  2  2  0
 16  2  1  0
  4  3  1  0
  5  4  1  0
  4 15  1  1
  5  6  1  0
  5 12  1  6
  6  7  1  0
  6 16  1  1
  7  8  1  0
  7 17  1  1
  8  9  1  0
  8 18  1  6
  9 19  1  0
 10 11  1  0
 10 12  1  0
 10 20  2  0
M  END
$$$$
