
     RDKit          3D

 20 20  0  0  0  0  0  0  0  0999 V2000
  127.0758   33.7449  -11.1513 C   0  0  0  0  0  0  0  0  0  0  0  0
  128.3800   34.3908  -10.8937 C   0  0  0  0  0  0  0  0  0  0  0  0
  128.5343   35.1531   -9.8407 C   0  0  0  0  0  0  0  0  0  0  0  0
  129.8118   35.8192   -9.5380 C   0  0  1  0  0  0  0  0  0  0  0  0
  130.6884   35.8869  -10.7747 C   0  0  2  0  0  0  0  0  0  0  0  0
  130.7263   34.4929  -11.3105 C   0  0  2  0  0  0  0  0  0  0  0  0
  131.7084   34.2145  -12.3702 C   0  0  1  0  0  0  0  0  0  0  0  0
  131.7539   32.8194  -12.9112 C   0  0  1  0  0  0  0  0  0  0  0  0
  132.7254   32.6475  -14.0558 C   0  0  0  0  0  0  0  0  0  0  0  0
  132.3506   37.6921  -10.7952 C   0  0  0  0  0  0  0  0  0  0  0  0
  133.5908   38.3212  -10.2458 C   0  0  0  0  0  0  0  0  0  0  0  0
  131.9551   36.3983  -10.3611 N   0  0  0  0  0  0  0  0  0  0  0  0
  126.9400   32.8528  -12.2044 O   0  0  0  0  0  0  0  0  0  0  0  0
  126.1196   34.0264  -10.4005 O   0  0  0  0  0  0  0  0  0  0  0  0
  129.5106   37.0932   -9.0577 O   0  0  0  0  0  0  0  0  0  0  0  0
  129.4281   34.1910  -11.7590 O   0  0  0  0  0  0  0  0  0  0  0  0
  131.6282   35.1403  -13.4422 O   0  0  0  0  0  0  0  0  0  0  0  0
  131.8520   31.8194  -11.9732 O   0  0  0  0  0  0  0  0  0  0  0  0
  132.5448   31.3282  -14.5386 O   0  0  0  0  0  0  0  0  0  0  0  0
  131.6909   38.3633  -11.6482 O   0  0  0  0  0  0  0  0  0  0  0  0
  2  1  1  0
  1 13  1  0
  1 14  2  0
  3  2  2  0
 16  2  1  0
  4  3  1  0
  5  4  1  0
  4 15  1  6
  5  6  1  0
  5 12  1  1
  6  7  1  0
  6 16  1  6
  7  8  1  0
  7 17  1  6
  8  9  1  0
  8 18  1  1
  9 19  1  6
 11 10  1  6
 10 12  1  0
 10 20  2  0
M  END
$$$$
