
     RDKit          3D

 20 20  0  0  0  0  0  0  0  0999 V2000
  134.7832   31.5093  -11.4761 C   0  0  0  0  0  0  0  0  0  0  0  0
  134.9557   32.7635  -10.7547 C   0  0  0  0  0  0  0  0  0  0  0  0
  134.5549   32.8355   -9.5166 C   0  0  0  0  0  0  0  0  0  0  0  0
  134.6926   34.0629   -8.7198 C   0  0  1  0  0  0  0  0  0  0  0  0
  134.8903   35.2951   -9.5721 C   0  0  2  0  0  0  0  0  0  0  0  0
  135.8906   35.0460  -10.6576 C   0  0  2  0  0  0  0  0  0  0  0  0
  135.9538   36.1881  -11.6210 C   0  0  1  0  0  0  0  0  0  0  0  0
  137.0075   36.0728  -12.6763 C   0  0  1  0  0  0  0  0  0  0  0  0
  137.0976   37.2770  -13.5802 C   0  0  0  0  0  0  0  0  0  0  0  0
  134.4991   37.4896   -8.3959 C   0  0  0  0  0  0  0  0  0  0  0  0
  134.8924   38.5811   -7.4718 C   0  0  0  0  0  0  0  0  0  0  0  0
  135.3094   36.3663   -8.6671 N   0  0  0  0  0  0  0  0  0  0  0  0
  135.2154   31.4009  -12.7979 O   0  0  0  0  0  0  0  0  0  0  0  0
  134.2486   30.5146  -10.9274 O   0  0  0  0  0  0  0  0  0  0  0  0
  133.5583   34.2780   -7.9377 O   0  0  0  0  0  0  0  0  0  0  0  0
  135.5306   33.8821  -11.3387 O   0  0  0  0  0  0  0  0  0  0  0  0
  134.7172   36.4408  -12.2202 O   0  0  0  0  0  0  0  0  0  0  0  0
  138.2551   35.9729  -12.0438 O   0  0  0  0  0  0  0  0  0  0  0  0
  138.1349   37.0329  -14.4950 O   0  0  0  0  0  0  0  0  0  0  0  0
  133.3829   37.5759   -8.9648 O   0  0  0  0  0  0  0  0  0  0  0  0
  2  1  1  0
  1 13  1  0
  1 14  2  0
  3  2  2  0
 16  2  1  0
  4  3  1  0
  5  4  1  0
  4 15  1  6
  5  6  1  0
  5 12  1  1
  6  7  1  0
  6 16  1  6
  7  8  1  0
  7 17  1  6
  8  9  1  0
  8 18  1  1
  9 19  1  0
 10 11  1  0
 10 12  1  0
 10 20  2  0
M  END
$$$$
