
     RDKit          3D

 20 20  0  0  0  0  0  0  0  0999 V2000
  137.1046   33.5009   -9.3574 C   0  0  0  0  0  0  0  0  0  0  0  0
  135.7403   33.5222   -9.8687 C   0  0  0  0  0  0  0  0  0  0  0  0
  135.1756   32.3943  -10.1968 C   0  0  0  0  0  0  0  0  0  0  0  0
  133.8035   32.3295  -10.7198 C   0  0  1  0  0  0  0  0  0  0  0  0
  133.3186   33.6560  -11.2575 C   0  0  2  0  0  0  0  0  0  0  0  0
  133.6631   34.7751  -10.3248 C   0  0  2  0  0  0  0  0  0  0  0  0
  133.3623   36.1090  -10.9303 C   0  0  1  0  0  0  0  0  0  0  0  0
  133.6630   37.2862  -10.0580 C   0  0  1  0  0  0  0  0  0  0  0  0
  132.8722   38.5216  -10.4093 C   0  0  0  0  0  0  0  0  0  0  0  0
  131.2593   33.7313  -12.7087 C   0  0  0  0  0  0  0  0  0  0  0  0
  129.8045   33.5663  -12.9459 C   0  0  0  0  0  0  0  0  0  0  0  0
  131.8744   33.5238  -11.4556 N   0  0  0  0  0  0  0  0  0  0  0  0
  137.7627   32.2841   -9.1788 O   0  0  0  0  0  0  0  0  0  0  0  0
  137.7060   34.5654   -9.0715 O   0  0  0  0  0  0  0  0  0  0  0  0
  133.7100   31.4029  -11.7577 O   0  0  0  0  0  0  0  0  0  0  0  0
  135.0226   34.6991  -10.0183 O   0  0  0  0  0  0  0  0  0  0  0  0
  133.9819   36.2759  -12.1714 O   0  0  0  0  0  0  0  0  0  0  0  0
  133.3046   36.9618   -8.7416 O   0  0  0  0  0  0  0  0  0  0  0  0
  133.4464   39.0663  -11.5695 O   0  0  0  0  0  0  0  0  0  0  0  0
  131.9771   34.0745  -13.6803 O   0  0  0  0  0  0  0  0  0  0  0  0
  2  1  1  0
  1 13  1  0
  1 14  2  0
  3  2  2  0
 16  2  1  0
  4  3  1  0
  5  4  1  0
  4 15  1  6
  5  6  1  0
  5 12  1  1
  6  7  1  0
  6 16  1  6
  7  8  1  0
  7 17  1  6
  8  9  1  0
  8 18  1  1
  9 19  1  0
 10 11  1  0
 10 12  1  0
 10 20  2  0
M  END
$$$$
