
     RDKit          3D

 10  9  0  0  0  0  0  0  0  0999 V2000
    7.6895   20.4350  120.5308 C   0  0  0  0  0  0  0  0  0  0  0  0
    7.0065   19.4443  119.8100 O   0  0  0  0  0  0  0  0  0  0  0  0
    8.9477   20.4010  120.4492 O   0  0  0  0  0  0  0  0  0  0  0  0
    6.9829   21.4324  121.3187 C   0  0  0  0  0  0  0  0  0  0  0  0
    5.7359   21.3375  121.3854 O   0  0  0  0  0  0  0  0  0  0  0  0
    7.7585   22.4955  121.9937 C   0  0  0  0  0  0  0  0  0  0  0  0
    6.8967   23.4493  122.7570 C   0  0  0  0  0  0  0  0  0  0  0  0
    7.7690   24.4444  123.4330 C   0  0  0  0  0  0  0  0  0  0  0  0
    7.3640   25.6323  123.6573 O   0  0  0  0  0  0  0  0  0  0  0  0
    9.0611   24.1498  123.8578 O   0  0  0  0  0  0  0  0  0  0  0  0
  1  2  1  0
  1  3  2  0
  1  4  1  0
  4  5  2  0
  4  6  1  0
  6  7  1  0
  7  8  1  0
  8  9  2  0
  8 10  1  0
M  END
$$$$
