
     RDKit          3D

 10  9  0  0  0  0  0  0  0  0999 V2000
    6.8273   24.0460  123.5925 C   0  0  0  0  0  0  0  0  0  0  0  0
    7.4745   25.0992  124.2633 O   0  0  0  0  0  0  0  0  0  0  0  0
    5.6351   23.8505  123.8958 O   0  0  0  0  0  0  0  0  0  0  0  0
    7.6003   23.2974  122.6238 C   0  0  0  0  0  0  0  0  0  0  0  0
    8.8370   23.5614  122.4315 O   0  0  0  0  0  0  0  0  0  0  0  0
    6.9734   22.2172  121.8434 C   0  0  0  0  0  0  0  0  0  0  0  0
    7.8680   21.6142  120.8095 C   0  0  0  0  0  0  0  0  0  0  0  0
    7.1782   20.3900  120.2831 C   0  0  0  0  0  0  0  0  0  0  0  0
    7.8426   19.5236  119.6783 O   0  0  0  0  0  0  0  0  0  0  0  0
    5.8123   20.1821  120.4453 O   0  0  0  0  0  0  0  0  0  0  0  0
  1  2  1  0
  1  3  2  0
  1  4  1  0
  4  5  2  0
  6  4  1  1
  6  7  1  0
  7  8  1  6
  8  9  2  0
  8 10  1  0
M  END
$$$$
