
     RDKit          3D

 10  9  0  0  0  0  0  0  0  0999 V2000
    6.8827   24.4925  123.1324 C   0  0  0  0  0  0  0  0  0  0  0  0
    7.1887   25.2633  124.2637 O   0  0  0  0  0  0  0  0  0  0  0  0
    6.1672   25.0593  122.2619 O   0  0  0  0  0  0  0  0  0  0  0  0
    7.3640   23.1285  122.9828 C   0  0  0  0  0  0  0  0  0  0  0  0
    8.0496   22.6527  123.9166 O   0  0  0  0  0  0  0  0  0  0  0  0
    7.0264   22.3787  121.7534 C   0  0  0  0  0  0  0  0  0  0  0  0
    7.6505   21.0209  121.7098 C   0  0  0  0  0  0  0  0  0  0  0  0
    7.1626   20.3101  120.4994 C   0  0  0  0  0  0  0  0  0  0  0  0
    6.8847   20.9444  119.4290 O   0  0  0  0  0  0  0  0  0  0  0  0
    6.9809   18.9311  120.4563 O   0  0  0  0  0  0  0  0  0  0  0  0
  1  2  1  0
  1  3  2  0
  1  4  1  0
  4  5  2  0
  4  6  1  0
  6  7  1  0
  7  8  1  0
  8  9  2  0
  8 10  1  0
M  END
$$$$
