
     RDKit          3D

 10  9  0  0  0  0  0  0  0  0999 V2000
    7.9269   20.1375  120.3593 C   0  0  0  0  0  0  0  0  0  0  0  0
    7.2170   19.1870  119.6039 O   0  0  0  0  0  0  0  0  0  0  0  0
    9.1690   20.0522  120.3242 O   0  0  0  0  0  0  0  0  0  0  0  0
    7.1543   21.1142  121.0979 C   0  0  0  0  0  0  0  0  0  0  0  0
    5.8771   21.1229  121.0293 O   0  0  0  0  0  0  0  0  0  0  0  0
    7.8286   22.1147  121.9424 C   0  0  0  0  0  0  0  0  0  0  0  0
    6.9118   23.1471  122.5140 C   0  0  0  0  0  0  0  0  0  0  0  0
    7.7443   24.0585  123.3671 C   0  0  0  0  0  0  0  0  0  0  0  0
    7.1828   24.9244  124.0691 O   0  0  0  0  0  0  0  0  0  0  0  0
    9.1323   23.9741  123.4056 O   0  0  0  0  0  0  0  0  0  0  0  0
  1  2  1  0
  1  3  2  0
  1  4  1  0
  4  5  2  0
  6  4  1  1
  6  7  1  0
  7  8  1  6
  8  9  2  0
  8 10  1  0
M  END
$$$$
