
     RDKit          3D

 10  9  0  0  0  0  0  0  0  0999 V2000
    7.6051   24.2263  123.7906 C   0  0  0  0  0  0  0  0  0  0  0  0
    7.6820   25.6115  124.0218 O   0  0  0  0  0  0  0  0  0  0  0  0
    7.6088   23.4986  124.8016 O   0  0  0  0  0  0  0  0  0  0  0  0
    7.5298   23.7830  122.4144 C   0  0  0  0  0  0  0  0  0  0  0  0
    7.6390   24.6192  121.4527 O   0  0  0  0  0  0  0  0  0  0  0  0
    7.3267   22.3588  122.0995 C   0  0  0  0  0  0  0  0  0  0  0  0
    7.3297   22.0515  120.6372 C   0  0  0  0  0  0  0  0  0  0  0  0
    7.1462   20.5692  120.4933 C   0  0  0  0  0  0  0  0  0  0  0  0
    5.9984   20.1056  120.3342 O   0  0  0  0  0  0  0  0  0  0  0  0
    8.2179   19.6831  120.5309 O   0  0  0  0  0  0  0  0  0  0  0  0
  1  2  1  0
  1  3  2  0
  1  4  1  0
  4  5  2  0
  6  4  1  1
  6  7  1  0
  7  8  1  6
  8  9  2  0
  8 10  1  0
M  END
$$$$
