
     RDKit          3D

 10  9  0  0  0  0  0  0  0  0999 V2000
    7.0773   24.8064  123.0087 C   0  0  0  0  0  0  0  0  0  0  0  0
    7.3388   25.5387  124.1762 O   0  0  0  0  0  0  0  0  0  0  0  0
    6.6094   25.4675  122.0419 O   0  0  0  0  0  0  0  0  0  0  0  0
    7.3326   23.3770  122.9289 C   0  0  0  0  0  0  0  0  0  0  0  0
    7.7365   22.8040  123.9667 O   0  0  0  0  0  0  0  0  0  0  0  0
    7.1067   22.6779  121.6452 C   0  0  0  0  0  0  0  0  0  0  0  0
    7.3767   21.2098  121.7266 C   0  0  0  0  0  0  0  0  0  0  0  0
    7.0642   20.5934  120.4111 C   0  0  0  0  0  0  0  0  0  0  0  0
    6.6889   21.3046  119.4218 O   0  0  0  0  0  0  0  0  0  0  0  0
    7.1594   19.2248  120.1774 O   0  0  0  0  0  0  0  0  0  0  0  0
  1  2  1  0
  1  3  2  0
  1  4  1  0
  4  5  2  0
  4  6  1  0
  6  7  1  0
  7  8  1  0
  8  9  2  0
  8 10  1  0
M  END
$$$$
