
     RDKit          3D

 10  9  0  0  0  0  0  0  0  0999 V2000
    7.3225   20.3210  120.3763 C   0  0  0  0  0  0  0  0  0  0  0  0
    8.6646   20.2979  119.9691 O   0  0  0  0  0  0  0  0  0  0  0  0
    6.5865   19.4224  119.8847 O   0  0  0  0  0  0  0  0  0  0  0  0
    6.8220   21.3212  121.3058 C   0  0  0  0  0  0  0  0  0  0  0  0
    5.6266   21.2263  121.6671 O   0  0  0  0  0  0  0  0  0  0  0  0
    7.7345   22.3871  121.7734 C   0  0  0  0  0  0  0  0  0  0  0  0
    7.0203   23.5000  122.4709 C   0  0  0  0  0  0  0  0  0  0  0  0
    8.0116   24.2930  123.2433 C   0  0  0  0  0  0  0  0  0  0  0  0
    9.2564   24.2361  122.9735 O   0  0  0  0  0  0  0  0  0  0  0  0
    7.6524   25.1342  124.2921 O   0  0  0  0  0  0  0  0  0  0  0  0
  1  2  1  0
  1  3  2  0
  1  4  1  0
  4  5  2  0
  4  6  1  0
  6  7  1  0
  7  8  1  0
  8  9  2  0
  8 10  1  0
M  END
$$$$
