
     RDKit          3D

 10  9  0  0  0  0  0  0  0  0999 V2000
    7.5828   24.7021  122.9848 C   0  0  0  0  0  0  0  0  0  0  0  0
    7.7506   25.4595  121.8161 O   0  0  0  0  0  0  0  0  0  0  0  0
    7.5939   25.3535  124.0648 O   0  0  0  0  0  0  0  0  0  0  0  0
    7.4084   23.2590  122.9429 C   0  0  0  0  0  0  0  0  0  0  0  0
    7.2219   22.6684  124.0314 O   0  0  0  0  0  0  0  0  0  0  0  0
    7.4589   22.5673  121.6366 C   0  0  0  0  0  0  0  0  0  0  0  0
    7.2505   21.0913  121.7510 C   0  0  0  0  0  0  0  0  0  0  0  0
    7.2745   20.4989  120.3885 C   0  0  0  0  0  0  0  0  0  0  0  0
    6.9869   21.1963  119.3607 O   0  0  0  0  0  0  0  0  0  0  0  0
    7.6066   19.1687  120.1498 O   0  0  0  0  0  0  0  0  0  0  0  0
  1  2  1  0
  1  3  2  0
  1  4  1  0
  4  5  2  0
  4  6  1  0
  6  7  1  0
  7  8  1  0
  8  9  2  0
  8 10  1  0
M  END
$$$$
