
     RDKit          3D

 10  9  0  0  0  0  0  0  0  0999 V2000
    8.2058   24.8174  122.7183 C   0  0  0  0  0  0  0  0  0  0  0  0
    8.8758   25.1679  121.5325 O   0  0  0  0  0  0  0  0  0  0  0  0
    8.1029   25.7131  123.5778 O   0  0  0  0  0  0  0  0  0  0  0  0
    7.7048   23.4633  122.8259 C   0  0  0  0  0  0  0  0  0  0  0  0
    7.3130   23.0001  123.9520 O   0  0  0  0  0  0  0  0  0  0  0  0
    7.6375   22.5962  121.6374 C   0  0  0  0  0  0  0  0  0  0  0  0
    7.1270   21.2196  121.9155 C   0  0  0  0  0  0  0  0  0  0  0  0
    6.9877   20.5212  120.5948 C   0  0  0  0  0  0  0  0  0  0  0  0
    6.9180   19.2754  120.5638 O   0  0  0  0  0  0  0  0  0  0  0  0
    6.9329   21.2166  119.3912 O   0  0  0  0  0  0  0  0  0  0  0  0
  1  2  1  0
  1  3  2  0
  1  4  1  0
  4  5  2  0
  6  4  1  1
  6  7  1  0
  7  8  1  6
  8  9  2  0
  8 10  1  0
M  END
$$$$
