
     RDKit          3D

 10  9  0  0  0  0  0  0  0  0999 V2000
    7.0956   23.4785  123.8115 C   0  0  0  0  0  0  0  0  0  0  0  0
    7.4313   24.7493  124.3121 O   0  0  0  0  0  0  0  0  0  0  0  0
    6.5156   22.7109  124.6026 O   0  0  0  0  0  0  0  0  0  0  0  0
    7.4523   23.1869  122.4389 C   0  0  0  0  0  0  0  0  0  0  0  0
    8.1046   24.0365  121.7397 O   0  0  0  0  0  0  0  0  0  0  0  0
    7.0695   21.9042  121.8251 C   0  0  0  0  0  0  0  0  0  0  0  0
    7.6400   21.6869  120.4612 C   0  0  0  0  0  0  0  0  0  0  0  0
    7.2358   20.3097  120.0236 C   0  0  0  0  0  0  0  0  0  0  0  0
    6.3770   19.6849  120.6794 O   0  0  0  0  0  0  0  0  0  0  0  0
    7.7875   19.6967  118.9035 O   0  0  0  0  0  0  0  0  0  0  0  0
  1  2  1  0
  1  3  2  0
  1  4  1  0
  4  5  2  0
  6  4  1  1
  6  7  1  0
  7  8  1  6
  8  9  2  0
  8 10  1  0
M  END
$$$$
