
     RDKit          3D

 10  9  0  0  0  0  0  0  0  0999 V2000
    6.8244   24.5602  123.1889 C   0  0  0  0  0  0  0  0  0  0  0  0
    7.3587   25.2891  124.2666 O   0  0  0  0  0  0  0  0  0  0  0  0
    5.8467   25.0706  122.6101 O   0  0  0  0  0  0  0  0  0  0  0  0
    7.4550   23.2994  122.8587 C   0  0  0  0  0  0  0  0  0  0  0  0
    8.4577   22.8758  123.5305 O   0  0  0  0  0  0  0  0  0  0  0  0
    6.9502   22.4828  121.7421 C   0  0  0  0  0  0  0  0  0  0  0  0
    7.9498   21.5177  121.1921 C   0  0  0  0  0  0  0  0  0  0  0  0
    7.1956   20.5183  120.3652 C   0  0  0  0  0  0  0  0  0  0  0  0
    6.0366   20.7849  119.9866 O   0  0  0  0  0  0  0  0  0  0  0  0
    7.7449   19.2933  120.0008 O   0  0  0  0  0  0  0  0  0  0  0  0
  1  2  1  0
  1  3  2  0
  1  4  1  0
  4  5  2  0
  6  4  1  1
  6  7  1  0
  7  8  1  6
  8  9  2  0
  8 10  1  0
M  END
$$$$
