
     RDKit          3D

 10  9  0  0  0  0  0  0  0  0999 V2000
    7.0356   24.8661  123.0035 C   0  0  0  0  0  0  0  0  0  0  0  0
    7.4627   25.6086  124.1190 O   0  0  0  0  0  0  0  0  0  0  0  0
    6.2759   25.4530  122.2098 O   0  0  0  0  0  0  0  0  0  0  0  0
    7.5145   23.5049  122.8853 C   0  0  0  0  0  0  0  0  0  0  0  0
    8.2256   22.9809  123.8105 O   0  0  0  0  0  0  0  0  0  0  0  0
    7.1891   22.7003  121.6956 C   0  0  0  0  0  0  0  0  0  0  0  0
    7.6014   21.2676  121.7974 C   0  0  0  0  0  0  0  0  0  0  0  0
    7.1041   20.5724  120.5642 C   0  0  0  0  0  0  0  0  0  0  0  0
    7.8986   19.8981  119.8773 O   0  0  0  0  0  0  0  0  0  0  0  0
    5.7775   20.6518  120.1532 O   0  0  0  0  0  0  0  0  0  0  0  0
  1  2  1  0
  1  3  2  0
  1  4  1  0
  4  5  2  0
  6  4  1  1
  6  7  1  0
  7  8  1  6
  8  9  2  0
  8 10  1  0
M  END
$$$$
