
     RDKit          3D

 10  9  0  0  0  0  0  0  0  0999 V2000
    6.6563   20.3594  120.6914 C   0  0  0  0  0  0  0  0  0  0  0  0
    7.1342   19.4251  119.7549 O   0  0  0  0  0  0  0  0  0  0  0  0
    5.4437   20.2905  120.9679 O   0  0  0  0  0  0  0  0  0  0  0  0
    7.6092   21.3020  121.2388 C   0  0  0  0  0  0  0  0  0  0  0  0
    8.8300   21.2917  120.8570 O   0  0  0  0  0  0  0  0  0  0  0  0
    7.1866   22.2902  122.2456 C   0  0  0  0  0  0  0  0  0  0  0  0
    8.2869   23.1803  122.7252 C   0  0  0  0  0  0  0  0  0  0  0  0
    7.6788   24.1648  123.6804 C   0  0  0  0  0  0  0  0  0  0  0  0
    6.6183   23.8727  124.2702 O   0  0  0  0  0  0  0  0  0  0  0  0
    8.2582   25.4034  123.9362 O   0  0  0  0  0  0  0  0  0  0  0  0
  1  2  1  0
  1  3  2  0
  1  4  1  0
  4  5  2  0
  6  4  1  1
  6  7  1  0
  7  8  1  6
  8  9  2  0
  8 10  1  0
M  END
$$$$
