
     RDKit          3D

 10  9  0  0  0  0  0  0  0  0999 V2000
    8.6128   24.6957  122.3669 C   0  0  0  0  0  0  0  0  0  0  0  0
    8.4461   25.6099  123.4227 O   0  0  0  0  0  0  0  0  0  0  0  0
    9.3789   25.0476  121.4500 O   0  0  0  0  0  0  0  0  0  0  0  0
    7.8858   23.4462  122.4457 C   0  0  0  0  0  0  0  0  0  0  0  0
    7.2201   23.1437  123.4953 O   0  0  0  0  0  0  0  0  0  0  0  0
    7.9006   22.5019  121.3157 C   0  0  0  0  0  0  0  0  0  0  0  0
    6.9543   21.3554  121.4670 C   0  0  0  0  0  0  0  0  0  0  0  0
    7.0910   20.5005  120.2414 C   0  0  0  0  0  0  0  0  0  0  0  0
    7.9944   20.7498  119.4170 O   0  0  0  0  0  0  0  0  0  0  0  0
    6.2404   19.4298  119.9866 O   0  0  0  0  0  0  0  0  0  0  0  0
  1  2  1  0
  1  3  2  0
  1  4  1  0
  4  5  2  0
  6  4  1  1
  6  7  1  0
  7  8  1  6
  8  9  2  0
  8 10  1  0
M  END
$$$$
