
     RDKit          3D

 10  9  0  0  0  0  0  0  0  0999 V2000
    7.6786   20.3526  120.2840 C   0  0  0  0  0  0  0  0  0  0  0  0
    7.1364   19.4473  119.3597 O   0  0  0  0  0  0  0  0  0  0  0  0
    8.8991   20.1900  120.5570 O   0  0  0  0  0  0  0  0  0  0  0  0
    6.8761   21.4069  120.8833 C   0  0  0  0  0  0  0  0  0  0  0  0
    5.6685   21.4690  120.5573 O   0  0  0  0  0  0  0  0  0  0  0  0
    7.5144   22.3420  121.8351 C   0  0  0  0  0  0  0  0  0  0  0  0
    6.5942   23.4298  122.2879 C   0  0  0  0  0  0  0  0  0  0  0  0
    7.3072   24.2757  123.2800 C   0  0  0  0  0  0  0  0  0  0  0  0
    8.4123   23.9009  123.7935 O   0  0  0  0  0  0  0  0  0  0  0  0
    6.8240   25.5095  123.7052 O   0  0  0  0  0  0  0  0  0  0  0  0
  1  2  1  0
  1  3  2  0
  1  4  1  0
  4  5  2  0
  4  6  1  0
  6  7  1  0
  7  8  1  0
  8  9  2  0
  8 10  1  0
M  END
$$$$
