
     RDKit          3D

 10  9  0  0  0  0  0  0  0  0999 V2000
    7.7184   20.7159  119.8991 C   0  0  0  0  0  0  0  0  0  0  0  0
    7.7231   19.3640  119.5113 O   0  0  0  0  0  0  0  0  0  0  0  0
    7.8372   21.5517  118.9831 O   0  0  0  0  0  0  0  0  0  0  0  0
    7.5774   21.0042  121.3109 C   0  0  0  0  0  0  0  0  0  0  0  0
    7.6371   20.0654  122.1776 O   0  0  0  0  0  0  0  0  0  0  0  0
    7.3633   22.3863  121.7722 C   0  0  0  0  0  0  0  0  0  0  0  0
    7.2769   22.5265  123.2574 C   0  0  0  0  0  0  0  0  0  0  0  0
    7.4251   23.9852  123.5764 C   0  0  0  0  0  0  0  0  0  0  0  0
    7.6943   24.3337  124.7443 O   0  0  0  0  0  0  0  0  0  0  0  0
    7.2722   24.9740  122.6099 O   0  0  0  0  0  0  0  0  0  0  0  0
  1  2  1  0
  1  3  2  0
  1  4  1  0
  4  5  2  0
  6  4  1  1
  6  7  1  0
  7  8  1  6
  8  9  2  0
  8 10  1  0
M  END
$$$$
