
     RDKit          3D

 10  9  0  0  0  0  0  0  0  0999 V2000
    7.3073   24.7250  123.4641 C   0  0  0  0  0  0  0  0  0  0  0  0
    7.0525   23.9667  124.6164 O   0  0  0  0  0  0  0  0  0  0  0  0
    7.4870   25.9594  123.6506 O   0  0  0  0  0  0  0  0  0  0  0  0
    7.3586   24.1171  122.1440 C   0  0  0  0  0  0  0  0  0  0  0  0
    7.6646   24.8557  121.1801 O   0  0  0  0  0  0  0  0  0  0  0  0
    7.0516   22.6770  122.0043 C   0  0  0  0  0  0  0  0  0  0  0  0
    7.2277   22.1774  120.6063 C   0  0  0  0  0  0  0  0  0  0  0  0
    6.8475   20.7415  120.5613 C   0  0  0  0  0  0  0  0  0  0  0  0
    6.5627   20.1008  121.6260 O   0  0  0  0  0  0  0  0  0  0  0  0
    6.7786   20.0162  119.3756 O   0  0  0  0  0  0  0  0  0  0  0  0
  1  2  1  0
  1  3  2  0
  1  4  1  0
  4  5  2  0
  4  6  1  0
  6  7  1  0
  7  8  1  0
  8  9  2  0
  8 10  1  0
M  END
$$$$
