
     RDKit          3D

 10  9  0  0  0  0  0  0  0  0999 V2000
    7.5239   24.9968  122.6110 C   0  0  0  0  0  0  0  0  0  0  0  0
    7.6380   25.6228  123.8653 O   0  0  0  0  0  0  0  0  0  0  0  0
    7.5013   25.7505  121.6197 O   0  0  0  0  0  0  0  0  0  0  0  0
    7.4444   23.5512  122.5920 C   0  0  0  0  0  0  0  0  0  0  0  0
    7.3749   22.8872  123.6830 O   0  0  0  0  0  0  0  0  0  0  0  0
    7.4414   22.8211  121.3130 C   0  0  0  0  0  0  0  0  0  0  0  0
    7.2665   21.3439  121.4549 C   0  0  0  0  0  0  0  0  0  0  0  0
    7.3046   20.7564  120.0748 C   0  0  0  0  0  0  0  0  0  0  0  0
    7.1008   19.5344  119.9222 O   0  0  0  0  0  0  0  0  0  0  0  0
    7.5611   21.5298  118.9474 O   0  0  0  0  0  0  0  0  0  0  0  0
  1  2  1  0
  1  3  2  0
  1  4  1  0
  4  5  2  0
  6  4  1  1
  6  7  1  0
  7  8  1  6
  8  9  2  0
  8 10  1  0
M  END
$$$$
