
     RDKit          3D

 10  9  0  0  0  0  0  0  0  0999 V2000
    8.2284   24.4664  122.9204 C   0  0  0  0  0  0  0  0  0  0  0  0
    8.0621   25.3960  123.9577 O   0  0  0  0  0  0  0  0  0  0  0  0
    9.0674   24.7817  122.0331 O   0  0  0  0  0  0  0  0  0  0  0  0
    7.4766   23.2223  122.8801 C   0  0  0  0  0  0  0  0  0  0  0  0
    6.7003   22.9859  123.8340 O   0  0  0  0  0  0  0  0  0  0  0  0
    7.6614   22.3086  121.7318 C   0  0  0  0  0  0  0  0  0  0  0  0
    6.7004   21.1635  121.7386 C   0  0  0  0  0  0  0  0  0  0  0  0
    6.9468   20.3266  120.5357 C   0  0  0  0  0  0  0  0  0  0  0  0
    6.1975   19.3331  120.2584 O   0  0  0  0  0  0  0  0  0  0  0  0
    7.9922   20.5685  119.6495 O   0  0  0  0  0  0  0  0  0  0  0  0
  1  2  1  0
  1  3  2  0
  1  4  1  0
  4  5  2  0
  4  6  1  0
  6  7  1  0
  7  8  1  0
  8  9  2  0
  8 10  1  0
M  END
$$$$
