
     RDKit          3D

 10  9  0  0  0  0  0  0  0  0999 V2000
    8.3822   24.3889  122.9899 C   0  0  0  0  0  0  0  0  0  0  0  0
    8.0353   25.3242  123.9813 O   0  0  0  0  0  0  0  0  0  0  0  0
    9.4460   24.6037  122.3787 O   0  0  0  0  0  0  0  0  0  0  0  0
    7.4792   23.2774  122.7766 C   0  0  0  0  0  0  0  0  0  0  0  0
    6.4308   23.1412  123.4965 O   0  0  0  0  0  0  0  0  0  0  0  0
    7.7541   22.2844  121.7244 C   0  0  0  0  0  0  0  0  0  0  0  0
    6.6144   21.3583  121.4477 C   0  0  0  0  0  0  0  0  0  0  0  0
    7.0511   20.4295  120.3531 C   0  0  0  0  0  0  0  0  0  0  0  0
    6.2015   19.7232  119.7725 O   0  0  0  0  0  0  0  0  0  0  0  0
    8.3804   20.3247  119.9570 O   0  0  0  0  0  0  0  0  0  0  0  0
  1  2  1  0
  1  3  2  0
  1  4  1  0
  4  5  2  0
  6  4  1  1
  6  7  1  0
  7  8  1  6
  8  9  2  0
  8 10  1  0
M  END
$$$$
