
     RDKit          3D

 10  9  0  0  0  0  0  0  0  0999 V2000
    7.2218   24.6608  123.2741 C   0  0  0  0  0  0  0  0  0  0  0  0
    7.4873   25.4121  124.4285 O   0  0  0  0  0  0  0  0  0  0  0  0
    6.7657   25.3088  122.2928 O   0  0  0  0  0  0  0  0  0  0  0  0
    7.4603   23.2272  123.2225 C   0  0  0  0  0  0  0  0  0  0  0  0
    7.8487   22.6686  124.2740 O   0  0  0  0  0  0  0  0  0  0  0  0
    7.2363   22.5073  121.9500 C   0  0  0  0  0  0  0  0  0  0  0  0
    7.5873   21.0565  122.0325 C   0  0  0  0  0  0  0  0  0  0  0  0
    7.0037   20.3568  120.8586 C   0  0  0  0  0  0  0  0  0  0  0  0
    5.9140   19.7021  120.9554 O   0  0  0  0  0  0  0  0  0  0  0  0
    7.5975   20.3707  119.6000 O   0  0  0  0  0  0  0  0  0  0  0  0
  1  2  1  0
  1  3  2  0
  1  4  1  0
  4  5  2  0
  4  6  1  0
  6  7  1  0
  7  8  1  0
  8  9  2  0
  8 10  1  0
M  END
$$$$
