
     RDKit          3D

 10  9  0  0  0  0  0  0  0  0999 V2000
    8.0636   24.6169  123.0893 C   0  0  0  0  0  0  0  0  0  0  0  0
    8.7488   25.2382  122.0347 O   0  0  0  0  0  0  0  0  0  0  0  0
    7.8531   25.3364  124.1036 O   0  0  0  0  0  0  0  0  0  0  0  0
    7.6285   23.2317  123.0082 C   0  0  0  0  0  0  0  0  0  0  0  0
    7.1279   22.7229  124.0373 O   0  0  0  0  0  0  0  0  0  0  0  0
    7.7953   22.5001  121.7336 C   0  0  0  0  0  0  0  0  0  0  0  0
    7.1817   21.1371  121.7602 C   0  0  0  0  0  0  0  0  0  0  0  0
    7.4240   20.4790  120.4501 C   0  0  0  0  0  0  0  0  0  0  0  0
    7.7503   21.1576  119.4213 O   0  0  0  0  0  0  0  0  0  0  0  0
    7.3129   19.1043  120.2644 O   0  0  0  0  0  0  0  0  0  0  0  0
  1  2  1  0
  1  3  2  0
  1  4  1  0
  4  5  2  0
  4  6  1  0
  6  7  1  0
  7  8  1  0
  8  9  2  0
  8 10  1  0
M  END
$$$$
