
     RDKit          3D

 10  9  0  0  0  0  0  0  0  0999 V2000
    6.4917   20.3888  120.3044 C   0  0  0  0  0  0  0  0  0  0  0  0
    7.0436   19.3865  119.4865 O   0  0  0  0  0  0  0  0  0  0  0  0
    5.2903   20.2546  120.6047 O   0  0  0  0  0  0  0  0  0  0  0  0
    7.3633   21.4695  120.7150 C   0  0  0  0  0  0  0  0  0  0  0  0
    8.5701   21.5298  120.2951 O   0  0  0  0  0  0  0  0  0  0  0  0
    6.8728   22.5192  121.6240 C   0  0  0  0  0  0  0  0  0  0  0  0
    7.9476   23.3978  122.1768 C   0  0  0  0  0  0  0  0  0  0  0  0
    7.3193   24.2600  123.2319 C   0  0  0  0  0  0  0  0  0  0  0  0
    6.5698   25.1983  122.8915 O   0  0  0  0  0  0  0  0  0  0  0  0
    7.5426   24.0511  124.5889 O   0  0  0  0  0  0  0  0  0  0  0  0
  1  2  1  0
  1  3  2  0
  1  4  1  0
  4  5  2  0
  6  4  1  1
  6  7  1  0
  7  8  1  6
  8  9  2  0
  8 10  1  0
M  END
$$$$
