
     RDKit          3D

 10  9  0  0  0  0  0  0  0  0999 V2000
    6.8892   24.7416  123.0847 C   0  0  0  0  0  0  0  0  0  0  0  0
    7.4142   25.5220  124.1303 O   0  0  0  0  0  0  0  0  0  0  0  0
    5.9346   25.2354  122.4552 O   0  0  0  0  0  0  0  0  0  0  0  0
    7.5018   23.4523  122.8424 C   0  0  0  0  0  0  0  0  0  0  0  0
    8.4650   23.0395  123.5759 O   0  0  0  0  0  0  0  0  0  0  0  0
    7.0239   22.5937  121.7455 C   0  0  0  0  0  0  0  0  0  0  0  0
    7.8562   21.3733  121.5200 C   0  0  0  0  0  0  0  0  0  0  0  0
    7.1547   20.5405  120.4876 C   0  0  0  0  0  0  0  0  0  0  0  0
    7.8195   19.7670  119.7680 O   0  0  0  0  0  0  0  0  0  0  0  0
    5.7776   20.5985  120.2999 O   0  0  0  0  0  0  0  0  0  0  0  0
  1  2  1  0
  1  3  2  0
  1  4  1  0
  4  5  2  0
  6  4  1  1
  6  7  1  0
  7  8  1  6
  8  9  2  0
  8 10  1  0
M  END
$$$$
