
     RDKit          3D

 10  9  0  0  0  0  0  0  0  0999 V2000
    6.9208   24.3713  123.4265 C   0  0  0  0  0  0  0  0  0  0  0  0
    6.0768   25.2247  122.7006 O   0  0  0  0  0  0  0  0  0  0  0  0
    7.1262   24.6973  124.6275 O   0  0  0  0  0  0  0  0  0  0  0  0
    7.5160   23.1894  122.8235 C   0  0  0  0  0  0  0  0  0  0  0  0
    8.1467   22.4127  123.5767 O   0  0  0  0  0  0  0  0  0  0  0  0
    7.3509   22.9638  121.3711 C   0  0  0  0  0  0  0  0  0  0  0  0
    8.0977   21.7657  120.8796 C   0  0  0  0  0  0  0  0  0  0  0  0
    7.1320   20.6572  120.6629 C   0  0  0  0  0  0  0  0  0  0  0  0
    5.9237   20.8906  120.3296 O   0  0  0  0  0  0  0  0  0  0  0  0
    7.4773   19.3168  120.8066 O   0  0  0  0  0  0  0  0  0  0  0  0
  1  2  1  0
  1  3  2  0
  1  4  1  0
  4  5  2  0
  4  6  1  0
  6  7  1  0
  7  8  1  0
  8  9  2  0
  8 10  1  0
M  END
$$$$
