
     RDKit          3D

 10  9  0  0  0  0  0  0  0  0999 V2000
    8.0278   24.6450  122.8157 C   0  0  0  0  0  0  0  0  0  0  0  0
    9.1495   25.0255  122.0643 O   0  0  0  0  0  0  0  0  0  0  0  0
    7.6324   25.4838  123.6706 O   0  0  0  0  0  0  0  0  0  0  0  0
    7.3708   23.3634  122.6143 C   0  0  0  0  0  0  0  0  0  0  0  0
    6.5601   22.9864  123.4913 O   0  0  0  0  0  0  0  0  0  0  0  0
    7.6862   22.5776  121.4017 C   0  0  0  0  0  0  0  0  0  0  0  0
    6.9732   21.2643  121.3574 C   0  0  0  0  0  0  0  0  0  0  0  0
    7.3185   20.5765  120.0862 C   0  0  0  0  0  0  0  0  0  0  0  0
    8.3406   20.9207  119.4064 O   0  0  0  0  0  0  0  0  0  0  0  0
    6.5626   19.5308  119.5648 O   0  0  0  0  0  0  0  0  0  0  0  0
  1  2  1  0
  1  3  2  0
  1  4  1  0
  4  5  2  0
  4  6  1  0
  6  7  1  0
  7  8  1  0
  8  9  2  0
  8 10  1  0
M  END
$$$$
