
     RDKit          3D

 10  9  0  0  0  0  0  0  0  0999 V2000
    7.8682   24.7814  122.8225 C   0  0  0  0  0  0  0  0  0  0  0  0
    8.6140   25.3448  121.7766 O   0  0  0  0  0  0  0  0  0  0  0  0
    7.6468   25.5393  123.8061 O   0  0  0  0  0  0  0  0  0  0  0  0
    7.3864   23.4105  122.7667 C   0  0  0  0  0  0  0  0  0  0  0  0
    6.8630   22.9401  123.8027 O   0  0  0  0  0  0  0  0  0  0  0  0
    7.5350   22.6479  121.5081 C   0  0  0  0  0  0  0  0  0  0  0  0
    6.8818   21.3042  121.5612 C   0  0  0  0  0  0  0  0  0  0  0  0
    7.1465   20.5941  120.2829 C   0  0  0  0  0  0  0  0  0  0  0  0
    7.1365   21.2146  119.1693 O   0  0  0  0  0  0  0  0  0  0  0  0
    7.4179   19.2307  120.2194 O   0  0  0  0  0  0  0  0  0  0  0  0
  1  2  1  0
  1  3  2  0
  1  4  1  0
  4  5  2  0
  4  6  1  0
  6  7  1  0
  7  8  1  0
  8  9  2  0
  8 10  1  0
M  END
$$$$
