
     RDKit          3D

 23 24  0  0  0  0  0  0  0  0999 V2000
   -7.1525  -34.4475  -16.9408 C   0  0  2  0  0  0  0  0  0  0  0  0
   -7.9205  -35.7200  -17.1438 C   0  0  1  0  0  0  0  0  0  0  0  0
   -7.2863  -36.9369  -16.5935 C   0  0  2  0  0  0  0  0  0  0  0  0
   -5.7831  -36.9349  -16.6265 C   0  0  1  0  0  0  0  0  0  0  0  0
   -5.3505  -35.5838  -16.0435 C   0  0  1  0  0  0  0  0  0  0  0  0
   -3.8704  -35.5292  -15.8642 C   0  0  0  0  0  0  0  0  0  0  0  0
   -9.1671  -35.5519  -16.5168 O   0  0  0  0  0  0  0  0  0  0  0  0
   -7.7031  -38.0752  -17.3141 O   0  0  0  0  0  0  0  0  0  0  0  0
   -5.2694  -37.9339  -15.8200 O   0  0  0  0  0  0  0  0  0  0  0  0
   -5.7782  -34.6276  -16.9295 O   0  0  0  0  0  0  0  0  0  0  0  0
   -3.2797  -35.0426  -17.0259 O   0  0  0  0  0  0  0  0  0  0  0  0
   -8.2680  -31.1564  -11.9331 O   0  0  0  0  0  0  0  0  0  0  0  0
   -5.9682  -30.5239  -12.0201 C   0  0  0  0  0  0  0  0  0  0  0  0
   -5.6443  -31.5627  -11.1778 O   0  0  0  0  0  0  0  0  0  0  0  0
   -7.2329  -30.8336  -12.8023 C   0  0  1  0  0  0  0  0  0  0  0  0
   -6.9886  -31.8550  -13.6900 O   0  0  0  0  0  0  0  0  0  0  0  0
   -7.6518  -29.6220  -13.5832 C   0  0  1  0  0  0  0  0  0  0  0  0
   -6.8702  -28.5156  -13.3453 O   0  0  0  0  0  0  0  0  0  0  0  0
   -7.5269  -30.1212  -15.0193 C   0  0  2  0  0  0  0  0  0  0  0  0
   -8.5559  -29.6428  -15.8152 O   0  0  0  0  0  0  0  0  0  0  0  0
   -7.7843  -31.6003  -14.7921 C   0  0  1  0  0  0  0  0  0  0  0  0
   -7.4257  -32.4299  -15.9872 C   0  0  0  0  0  0  0  0  0  0  0  0
   -7.5389  -33.7792  -15.7870 O   0  0  0  0  0  0  0  0  0  0  0  0
  1  2  1  0
  1 10  1  0
  1 23  1  1
  2  3  1  0
  2  7  1  1
  3  4  1  0
  3  8  1  6
  5  4  1  0
  4  9  1  1
  5  6  1  0
  5 10  1  6
  6 11  1  6
 15 12  1  1
 13 14  1  1
 15 13  1  0
 16 15  1  0
 17 15  1  0
 21 16  1  1
 17 18  1  6
 19 17  1  0
 19 20  1  6
 21 19  1  0
 22 21  1  0
 22 23  1  6
M  END
$$$$
