
     RDKit          3D

 23 24  0  0  0  0  0  0  0  0999 V2000
   -7.2411  -35.0552  -15.7588 C   0  0  2  0  0  0  0  0  0  0  0  0
   -6.5527  -36.3335  -15.3812 C   0  0  1  0  0  0  0  0  0  0  0  0
   -5.4033  -36.7088  -16.2319 C   0  0  2  0  0  0  0  0  0  0  0  0
   -5.5259  -36.3009  -17.6739 C   0  0  1  0  0  0  0  0  0  0  0  0
   -5.9468  -34.8260  -17.6603 C   0  0  1  0  0  0  0  0  0  0  0  0
   -5.9358  -34.2551  -19.0386 C   0  0  0  0  0  0  0  0  0  0  0  0
   -6.0917  -36.1778  -14.0627 O   0  0  0  0  0  0  0  0  0  0  0  0
   -5.2236  -38.1076  -16.2234 O   0  0  0  0  0  0  0  0  0  0  0  0
   -4.3062  -36.3925  -18.3192 O   0  0  0  0  0  0  0  0  0  0  0  0
   -7.2069  -34.7904  -17.1189 O   0  0  0  0  0  0  0  0  0  0  0  0
   -6.8969  -34.8956  -19.8140 O   0  0  0  0  0  0  0  0  0  0  0  0
   -5.3544  -30.0220  -12.8950 O   0  0  0  0  0  0  0  0  0  0  0  0
   -5.5320  -28.9670  -15.0285 C   0  0  0  0  0  0  0  0  0  0  0  0
   -4.7854  -29.5977  -15.9972 O   0  0  0  0  0  0  0  0  0  0  0  0
   -6.1189  -29.9738  -14.0544 C   0  0  1  0  0  0  0  0  0  0  0  0
   -6.1939  -31.2084  -14.6553 O   0  0  0  0  0  0  0  0  0  0  0  0
   -7.5074  -29.5527  -13.6701 C   0  0  1  0  0  0  0  0  0  0  0  0
   -7.8822  -28.3402  -14.2002 O   0  0  0  0  0  0  0  0  0  0  0  0
   -8.3429  -30.7064  -14.2163 C   0  0  2  0  0  0  0  0  0  0  0  0
   -9.3800  -31.0344  -13.3573 O   0  0  0  0  0  0  0  0  0  0  0  0
   -7.3158  -31.8213  -14.1279 C   0  0  1  0  0  0  0  0  0  0  0  0
   -7.7364  -33.0432  -14.8864 C   0  0  0  0  0  0  0  0  0  0  0  0
   -6.7386  -33.9632  -15.0642 O   0  0  0  0  0  0  0  0  0  0  0  0
  1  2  1  0
  1 10  1  0
  1 23  1  1
  2  3  1  0
  2  7  1  1
  3  4  1  0
  3  8  1  6
  5  4  1  0
  4  9  1  6
  5  6  1  0
  5 10  1  6
  6 11  1  6
 15 12  1  1
 13 14  1  1
 15 13  1  0
 16 15  1  0
 17 15  1  0
 21 16  1  6
 17 18  1  6
 19 17  1  0
 19 20  1  1
 21 19  1  0
 22 21  1  0
 22 23  1  6
M  END
$$$$
