
     RDKit          3D

 23 24  0  0  0  0  0  0  0  0999 V2000
   -7.4262  -34.9424  -15.3778 C   0  0  2  0  0  0  0  0  0  0  0  0
   -6.6023  -36.0953  -14.8854 C   0  0  1  0  0  0  0  0  0  0  0  0
   -5.4890  -36.5011  -15.7695 C   0  0  2  0  0  0  0  0  0  0  0  0
   -5.7512  -36.3182  -17.2386 C   0  0  1  0  0  0  0  0  0  0  0  0
   -6.2984  -34.8938  -17.3950 C   0  0  1  0  0  0  0  0  0  0  0  0
   -6.4377  -34.5307  -18.8353 C   0  0  0  0  0  0  0  0  0  0  0  0
   -6.0625  -35.7143  -13.6450 O   0  0  0  0  0  0  0  0  0  0  0  0
   -5.1866  -37.8657  -15.5816 O   0  0  0  0  0  0  0  0  0  0  0  0
   -4.5782  -36.4088  -17.9654 O   0  0  0  0  0  0  0  0  0  0  0  0
   -7.5142  -34.8767  -16.7595 O   0  0  0  0  0  0  0  0  0  0  0  0
   -7.7417  -34.7774  -19.2522 O   0  0  0  0  0  0  0  0  0  0  0  0
   -5.7969  -29.3341  -13.5765 O   0  0  0  0  0  0  0  0  0  0  0  0
   -6.4051  -28.5430  -15.7446 C   0  0  0  0  0  0  0  0  0  0  0  0
   -5.7867  -29.1954  -16.7865 O   0  0  0  0  0  0  0  0  0  0  0  0
   -6.7118  -29.5035  -14.6086 C   0  0  1  0  0  0  0  0  0  0  0  0
   -6.7002  -30.7953  -15.0799 O   0  0  0  0  0  0  0  0  0  0  0  0
   -8.0791  -29.2152  -14.0604 C   0  0  1  0  0  0  0  0  0  0  0  0
   -8.6834  -28.1209  -14.6339 O   0  0  0  0  0  0  0  0  0  0  0  0
   -8.8172  -30.5135  -14.3716 C   0  0  2  0  0  0  0  0  0  0  0  0
   -9.6735  -30.8709  -13.3419 O   0  0  0  0  0  0  0  0  0  0  0  0
   -7.6463  -31.4796  -14.3388 C   0  0  1  0  0  0  0  0  0  0  0  0
   -7.9969  -32.8177  -14.9150 C   0  0  0  0  0  0  0  0  0  0  0  0
   -6.9730  -33.7256  -14.8868 O   0  0  0  0  0  0  0  0  0  0  0  0
  1  2  1  0
  1 10  1  0
  1 23  1  6
  2  3  1  0
  2  7  1  1
  3  4  1  0
  3  8  1  6
  5  4  1  0
  4  9  1  6
  5  6  1  0
  5 10  1  6
  6 11  1  6
 15 12  1  1
 13 14  1  1
 15 13  1  0
 16 15  1  0
 17 15  1  0
 21 16  1  6
 17 18  1  6
 19 17  1  0
 19 20  1  1
 21 19  1  0
 22 21  1  0
 22 23  1  6
M  END
$$$$
