
     RDKit          3D

 23 24  0  0  0  0  0  0  0  0999 V2000
   -7.0477  -34.3667  -16.7901 C   0  0  2  0  0  0  0  0  0  0  0  0
   -7.7939  -35.6632  -16.9220 C   0  0  1  0  0  0  0  0  0  0  0  0
   -7.0200  -36.8507  -16.4220 C   0  0  2  0  0  0  0  0  0  0  0  0
   -5.6050  -36.7251  -16.9245 C   0  0  1  0  0  0  0  0  0  0  0  0
   -4.9826  -35.4067  -16.5437 C   0  0  1  0  0  0  0  0  0  0  0  0
   -4.0591  -34.9509  -17.6590 C   0  0  0  0  0  0  0  0  0  0  0  0
   -9.0153  -35.6467  -16.2285 O   0  0  0  0  0  0  0  0  0  0  0  0
   -7.5591  -38.0032  -17.0115 O   0  0  0  0  0  0  0  0  0  0  0  0
   -4.8878  -37.8121  -16.4250 O   0  0  0  0  0  0  0  0  0  0  0  0
   -5.8556  -34.4610  -16.1286 O   0  0  0  0  0  0  0  0  0  0  0  0
   -3.2884  -33.8712  -17.3046 O   0  0  0  0  0  0  0  0  0  0  0  0
   -7.1235  -31.1212  -11.6829 O   0  0  0  0  0  0  0  0  0  0  0  0
   -5.1158  -30.4442  -12.6909 C   0  0  0  0  0  0  0  0  0  0  0  0
   -4.2883  -31.1128  -13.5661 O   0  0  0  0  0  0  0  0  0  0  0  0
   -6.5909  -30.7773  -12.9243 C   0  0  1  0  0  0  0  0  0  0  0  0
   -6.6341  -31.8112  -13.8248 O   0  0  0  0  0  0  0  0  0  0  0  0
   -7.3220  -29.6067  -13.4895 C   0  0  1  0  0  0  0  0  0  0  0  0
   -6.5667  -28.4578  -13.5970 O   0  0  0  0  0  0  0  0  0  0  0  0
   -7.8381  -30.0973  -14.8251 C   0  0  2  0  0  0  0  0  0  0  0  0
   -9.1475  -29.7306  -15.0435 O   0  0  0  0  0  0  0  0  0  0  0  0
   -7.6794  -31.6141  -14.6917 C   0  0  1  0  0  0  0  0  0  0  0  0
   -7.3965  -32.1954  -16.0690 C   0  0  0  0  0  0  0  0  0  0  0  0
   -7.8565  -33.4996  -16.0530 O   0  0  0  0  0  0  0  0  0  0  0  0
  1  2  1  0
  1 10  1  0
  1 23  1  1
  2  3  1  0
  2  7  1  1
  3  4  1  0
  3  8  1  6
  5  4  1  0
  4  9  1  1
  5  6  1  6
 10  5  1  0
  6 11  1  0
 15 12  1  1
 13 14  1  0
 15 13  1  0
 16 15  1  0
 17 15  1  0
 21 16  1  0
 17 18  1  6
 19 17  1  0
 19 20  1  1
 21 19  1  0
 21 22  1  6
 22 23  1  0
M  END
$$$$
