
     RDKit          3D

 23 24  0  0  0  0  0  0  0  0999 V2000
   -5.4358  -34.2674  -16.5846 C   0  0  2  0  0  0  0  0  0  0  0  0
   -5.8106  -34.3946  -18.0315 C   0  0  1  0  0  0  0  0  0  0  0  0
   -6.4667  -35.6654  -18.4062 C   0  0  2  0  0  0  0  0  0  0  0  0
   -6.0105  -36.8656  -17.6240 C   0  0  1  0  0  0  0  0  0  0  0  0
   -6.0591  -36.4502  -16.1482 C   0  0  1  0  0  0  0  0  0  0  0  0
   -5.7906  -37.6158  -15.2565 C   0  0  0  0  0  0  0  0  0  0  0  0
   -6.6947  -33.3411  -18.3210 O   0  0  0  0  0  0  0  0  0  0  0  0
   -6.2294  -35.9571  -19.7654 O   0  0  0  0  0  0  0  0  0  0  0  0
   -6.8776  -37.9286  -17.7987 O   0  0  0  0  0  0  0  0  0  0  0  0
   -5.1061  -35.4759  -15.9911 O   0  0  0  0  0  0  0  0  0  0  0  0
   -5.1375  -37.1808  -14.1079 O   0  0  0  0  0  0  0  0  0  0  0  0
   -7.8526  -29.1758  -15.5121 O   0  0  0  0  0  0  0  0  0  0  0  0
   -9.3864  -30.0887  -13.9276 C   0  0  0  0  0  0  0  0  0  0  0  0
   -9.8931  -31.3648  -13.8364 O   0  0  0  0  0  0  0  0  0  0  0  0
   -7.9737  -30.1044  -14.4854 C   0  0  1  0  0  0  0  0  0  0  0  0
   -7.6620  -31.3718  -14.9184 O   0  0  0  0  0  0  0  0  0  0  0  0
   -7.0019  -29.7237  -13.4066 C   0  0  1  0  0  0  0  0  0  0  0  0
   -7.6042  -29.3689  -12.2222 O   0  0  0  0  0  0  0  0  0  0  0  0
   -6.1714  -30.9966  -13.2752 C   0  0  2  0  0  0  0  0  0  0  0  0
   -4.8307  -30.7102  -13.0711 O   0  0  0  0  0  0  0  0  0  0  0  0
   -6.3071  -31.5298  -14.6904 C   0  0  1  0  0  0  0  0  0  0  0  0
   -5.8472  -32.9509  -14.8091 C   0  0  0  0  0  0  0  0  0  0  0  0
   -6.4261  -33.6430  -15.8385 O   0  0  0  0  0  0  0  0  0  0  0  0
  1  2  1  0
  1 10  1  0
  1 23  1  1
  2  3  1  0
  2  7  1  1
  3  4  1  0
  3  8  1  6
  5  4  1  0
  4  9  1  1
  5  6  1  0
  5 10  1  6
  6 11  1  6
 15 12  1  6
 13 14  1  1
 15 13  1  0
 16 15  1  0
 17 15  1  0
 21 16  1  1
 17 18  1  1
 19 17  1  0
 19 20  1  6
 21 19  1  0
 22 21  1  0
 22 23  1  6
M  END
$$$$
