
     RDKit          3D

 23 24  0  0  0  0  0  0  0  0999 V2000
   -6.8679  -34.5873  -16.8222 C   0  0  2  0  0  0  0  0  0  0  0  0
   -7.6529  -35.8443  -17.0547 C   0  0  1  0  0  0  0  0  0  0  0  0
   -7.0884  -37.0657  -16.4419 C   0  0  2  0  0  0  0  0  0  0  0  0
   -5.5869  -37.1009  -16.3733 C   0  0  1  0  0  0  0  0  0  0  0  0
   -5.1599  -35.7500  -15.7857 C   0  0  1  0  0  0  0  0  0  0  0  0
   -3.6943  -35.7281  -15.5077 C   0  0  0  0  0  0  0  0  0  0  0  0
   -8.9340  -35.6340  -16.5164 O   0  0  0  0  0  0  0  0  0  0  0  0
   -7.4849  -38.2069  -17.1694 O   0  0  0  0  0  0  0  0  0  0  0  0
   -5.1542  -38.0968  -15.5168 O   0  0  0  0  0  0  0  0  0  0  0  0
   -5.5025  -34.8006  -16.7149 O   0  0  0  0  0  0  0  0  0  0  0  0
   -3.0432  -35.0103  -16.5056 O   0  0  0  0  0  0  0  0  0  0  0  0
   -8.4222  -31.1226  -12.0267 O   0  0  0  0  0  0  0  0  0  0  0  0
   -6.1477  -30.4161  -11.8708 C   0  0  0  0  0  0  0  0  0  0  0  0
   -5.1997  -31.4124  -11.8240 O   0  0  0  0  0  0  0  0  0  0  0  0
   -7.2994  -30.8053  -12.7815 C   0  0  1  0  0  0  0  0  0  0  0  0
   -6.9207  -31.8580  -13.5811 O   0  0  0  0  0  0  0  0  0  0  0  0
   -7.6554  -29.6466  -13.6668 C   0  0  1  0  0  0  0  0  0  0  0  0
   -6.9401  -28.5041  -13.3936 O   0  0  0  0  0  0  0  0  0  0  0  0
   -7.3438  -30.2076  -15.0508 C   0  0  2  0  0  0  0  0  0  0  0  0
   -8.2824  -29.8025  -15.9868 O   0  0  0  0  0  0  0  0  0  0  0  0
   -7.5844  -31.6825  -14.7816 C   0  0  1  0  0  0  0  0  0  0  0  0
   -7.0606  -32.5541  -15.8821 C   0  0  0  0  0  0  0  0  0  0  0  0
   -7.3137  -33.8881  -15.7088 O   0  0  0  0  0  0  0  0  0  0  0  0
  1  2  1  0
  1 10  1  0
  1 23  1  1
  2  3  1  0
  2  7  1  1
  3  4  1  0
  3  8  1  6
  5  4  1  0
  4  9  1  1
  5  6  1  0
  5 10  1  6
  6 11  1  6
 15 12  1  1
 13 14  1  1
 15 13  1  0
 16 15  1  0
 17 15  1  0
 21 16  1  1
 17 18  1  1
 19 17  1  0
 19 20  1  6
 21 19  1  0
 22 21  1  0
 22 23  1  6
M  END
$$$$
