
     RDKit          3D

 23 24  0  0  0  0  0  0  0  0999 V2000
   -7.4133  -34.3997  -16.8206 C   0  0  2  0  0  0  0  0  0  0  0  0
   -7.9516  -35.7978  -16.7438 C   0  0  1  0  0  0  0  0  0  0  0  0
   -6.9559  -36.8430  -16.4248 C   0  0  2  0  0  0  0  0  0  0  0  0
   -5.5741  -36.5815  -16.9569 C   0  0  1  0  0  0  0  0  0  0  0  0
   -5.2376  -35.1374  -16.5643 C   0  0  1  0  0  0  0  0  0  0  0  0
   -3.8181  -34.8130  -16.8889 C   0  0  0  0  0  0  0  0  0  0  0  0
   -8.9342  -35.8050  -15.7390 O   0  0  0  0  0  0  0  0  0  0  0  0
   -7.3625  -38.0851  -16.9545 O   0  0  0  0  0  0  0  0  0  0  0  0
   -4.6475  -37.4153  -16.3582 O   0  0  0  0  0  0  0  0  0  0  0  0
   -6.1023  -34.3363  -17.2662 O   0  0  0  0  0  0  0  0  0  0  0  0
   -3.7131  -34.4867  -18.2372 O   0  0  0  0  0  0  0  0  0  0  0  0
   -7.8476  -31.1161  -11.7122 O   0  0  0  0  0  0  0  0  0  0  0  0
   -5.6061  -30.4530  -12.1947 C   0  0  0  0  0  0  0  0  0  0  0  0
   -4.7586  -30.0434  -13.1985 O   0  0  0  0  0  0  0  0  0  0  0  0
   -6.9821  -30.7824  -12.7470 C   0  0  1  0  0  0  0  0  0  0  0  0
   -6.8803  -31.8035  -13.6623 O   0  0  0  0  0  0  0  0  0  0  0  0
   -7.5459  -29.5793  -13.4454 C   0  0  1  0  0  0  0  0  0  0  0  0
   -6.7504  -28.4617  -13.3469 O   0  0  0  0  0  0  0  0  0  0  0  0
   -7.6633  -30.0817  -14.8810 C   0  0  2  0  0  0  0  0  0  0  0  0
   -8.8205  -29.6199  -15.4883 O   0  0  0  0  0  0  0  0  0  0  0  0
   -7.8573  -31.5633  -14.6113 C   0  0  1  0  0  0  0  0  0  0  0  0
   -7.6984  -32.3922  -15.8494 C   0  0  0  0  0  0  0  0  0  0  0  0
   -7.5213  -33.7282  -15.6103 O   0  0  0  0  0  0  0  0  0  0  0  0
  1  2  1  0
  1 10  1  0
  1 23  1  1
  2  3  1  0
  2  7  1  1
  3  4  1  0
  3  8  1  6
  5  4  1  0
  4  9  1  1
  5  6  1  0
  5 10  1  6
  6 11  1  6
 15 12  1  1
 13 14  1  1
 15 13  1  0
 16 15  1  0
 17 15  1  0
 21 16  1  1
 17 18  1  6
 19 17  1  0
 19 20  1  1
 21 19  1  0
 22 21  1  0
 22 23  1  6
M  END
$$$$
