
     RDKit          3D

 23 24  0  0  0  0  0  0  0  0999 V2000
   -7.8578  -32.1659  -14.6004 C   0  0  2  0  0  0  0  0  0  0  0  0
   -8.2714  -30.7989  -15.0645 C   0  0  1  0  0  0  0  0  0  0  0  0
   -7.4497  -29.6917  -14.4662 C   0  0  2  0  0  0  0  0  0  0  0  0
   -7.2786  -29.9845  -12.9981 C   0  0  1  0  0  0  0  0  0  0  0  0
   -6.6970  -31.3535  -12.7567 C   0  0  1  0  0  0  0  0  0  0  0  0
   -7.3012  -31.9356  -11.4916 C   0  0  0  0  0  0  0  0  0  0  0  0
   -8.1895  -30.6638  -16.4602 O   0  0  0  0  0  0  0  0  0  0  0  0
   -8.1860  -28.5019  -14.5595 O   0  0  0  0  0  0  0  0  0  0  0  0
   -6.4850  -28.9709  -12.4611 O   0  0  0  0  0  0  0  0  0  0  0  0
   -6.7355  -32.1869  -13.8210 O   0  0  0  0  0  0  0  0  0  0  0  0
   -6.4553  -31.8584  -10.4128 O   0  0  0  0  0  0  0  0  0  0  0  0
   -4.4537  -35.7115  -18.3815 O   0  0  0  0  0  0  0  0  0  0  0  0
   -3.8108  -36.3927  -16.2304 C   0  0  0  0  0  0  0  0  0  0  0  0
   -3.8180  -35.7316  -15.0218 O   0  0  0  0  0  0  0  0  0  0  0  0
   -4.9843  -35.9788  -17.1205 C   0  0  1  0  0  0  0  0  0  0  0  0
   -5.5603  -34.8759  -16.5430 O   0  0  0  0  0  0  0  0  0  0  0  0
   -5.9988  -37.0681  -17.2114 C   0  0  1  0  0  0  0  0  0  0  0  0
   -5.6428  -38.2366  -16.5710 O   0  0  0  0  0  0  0  0  0  0  0  0
   -7.2614  -36.4514  -16.6490 C   0  0  2  0  0  0  0  0  0  0  0  0
   -8.3685  -36.7427  -17.4146 O   0  0  0  0  0  0  0  0  0  0  0  0
   -6.9242  -34.9583  -16.6687 C   0  0  1  0  0  0  0  0  0  0  0  0
   -7.6463  -34.2825  -15.5125 C   0  0  0  0  0  0  0  0  0  0  0  0
   -7.5770  -32.9202  -15.7413 O   0  0  0  0  0  0  0  0  0  0  0  0
  1  2  1  0
  1 10  1  0
  1 23  1  6
  2  3  1  0
  2  7  1  6
  3  4  1  0
  3  8  1  1
  5  4  1  0
  4  9  1  6
  5  6  1  1
 10  5  1  0
  6 11  1  0
 15 12  1  6
 13 14  1  0
 15 13  1  0
 16 15  1  0
 17 15  1  0
 21 16  1  0
 17 18  1  1
 19 17  1  0
 19 20  1  6
 21 19  1  0
 21 22  1  1
 22 23  1  0
M  END
$$$$
