
     RDKit          3D

 23 24  0  0  0  0  0  0  0  0999 V2000
   -6.4754  -32.1764  -14.8649 C   0  0  2  0  0  0  0  0  0  0  0  0
   -7.3002  -31.6077  -13.7462 C   0  0  1  0  0  0  0  0  0  0  0  0
   -8.2265  -30.5091  -14.1866 C   0  0  2  0  0  0  0  0  0  0  0  0
   -7.4594  -29.6012  -15.1127 C   0  0  1  0  0  0  0  0  0  0  0  0
   -6.8415  -30.3544  -16.2623 C   0  0  1  0  0  0  0  0  0  0  0  0
   -5.5078  -29.7204  -16.6140 C   0  0  0  0  0  0  0  0  0  0  0  0
   -8.0901  -32.5847  -13.1181 O   0  0  0  0  0  0  0  0  0  0  0  0
   -8.5662  -29.7463  -13.0600 O   0  0  0  0  0  0  0  0  0  0  0  0
   -8.3380  -28.6072  -15.5433 O   0  0  0  0  0  0  0  0  0  0  0  0
   -6.7904  -31.6965  -16.1050 O   0  0  0  0  0  0  0  0  0  0  0  0
   -5.2050  -29.8225  -17.9494 O   0  0  0  0  0  0  0  0  0  0  0  0
   -4.9989  -38.0891  -15.5666 O   0  0  0  0  0  0  0  0  0  0  0  0
   -7.3072  -38.4416  -15.7948 C   0  0  0  0  0  0  0  0  0  0  0  0
   -7.4118  -38.7281  -14.4514 O   0  0  0  0  0  0  0  0  0  0  0  0
   -6.1440  -37.4933  -16.0927 C   0  0  1  0  0  0  0  0  0  0  0  0
   -6.4384  -36.2931  -15.4975 O   0  0  0  0  0  0  0  0  0  0  0  0
   -5.9850  -37.2843  -17.5607 C   0  0  1  0  0  0  0  0  0  0  0  0
   -6.8329  -38.0413  -18.3417 O   0  0  0  0  0  0  0  0  0  0  0  0
   -6.1839  -35.7959  -17.7504 C   0  0  2  0  0  0  0  0  0  0  0  0
   -5.2475  -35.2498  -18.5998 O   0  0  0  0  0  0  0  0  0  0  0  0
   -6.0407  -35.2693  -16.3201 C   0  0  1  0  0  0  0  0  0  0  0  0
   -6.9209  -34.0379  -16.1660 C   0  0  0  0  0  0  0  0  0  0  0  0
   -6.7073  -33.5530  -14.8884 O   0  0  0  0  0  0  0  0  0  0  0  0
  1  2  1  0
  1 10  1  0
  1 23  1  6
  2  3  1  0
  2  7  1  6
  3  4  1  0
  3  8  1  1
  5  4  1  0
  4  9  1  6
  5  6  1  1
 10  5  1  0
  6 11  1  0
 15 12  1  1
 13 14  1  0
 15 13  1  0
 16 15  1  0
 17 15  1  0
 21 16  1  0
 17 18  1  6
 19 17  1  0
 19 20  1  6
 21 19  1  0
 21 22  1  6
 22 23  1  0
M  END
$$$$
