
     RDKit          3D

 23 24  0  0  0  0  0  0  0  0999 V2000
   -7.4659  -32.6503  -17.9847 C   0  0  2  0  0  0  0  0  0  0  0  0
   -8.4161  -33.6288  -18.6130 C   0  0  1  0  0  0  0  0  0  0  0  0
   -7.8211  -34.9946  -18.8119 C   0  0  2  0  0  0  0  0  0  0  0  0
   -6.4288  -34.8170  -19.3599 C   0  0  1  0  0  0  0  0  0  0  0  0
   -5.5858  -33.9225  -18.4881 C   0  0  1  0  0  0  0  0  0  0  0  0
   -4.6529  -33.1073  -19.3653 C   0  0  0  0  0  0  0  0  0  0  0  0
   -9.5860  -33.7963  -17.8539 O   0  0  0  0  0  0  0  0  0  0  0  0
   -8.5648  -35.6554  -19.8001 O   0  0  0  0  0  0  0  0  0  0  0  0
   -5.8736  -36.0881  -19.5061 O   0  0  0  0  0  0  0  0  0  0  0  0
   -6.2756  -33.1896  -17.5849 O   0  0  0  0  0  0  0  0  0  0  0  0
   -3.6605  -32.4825  -18.6510 O   0  0  0  0  0  0  0  0  0  0  0  0
   -7.0972  -34.3165  -12.4406 O   0  0  0  0  0  0  0  0  0  0  0  0
   -4.8746  -33.8845  -13.0556 C   0  0  0  0  0  0  0  0  0  0  0  0
   -4.7093  -35.0542  -13.7643 O   0  0  0  0  0  0  0  0  0  0  0  0
   -6.3167  -33.3762  -13.1112 C   0  0  1  0  0  0  0  0  0  0  0  0
   -6.6522  -33.2563  -14.4358 O   0  0  0  0  0  0  0  0  0  0  0  0
   -6.4413  -32.0435  -12.4534 C   0  0  1  0  0  0  0  0  0  0  0  0
   -5.2837  -31.5892  -11.8571 O   0  0  0  0  0  0  0  0  0  0  0  0
   -6.9336  -31.1280  -13.5535 C   0  0  2  0  0  0  0  0  0  0  0  0
   -7.9483  -30.3004  -13.1266 O   0  0  0  0  0  0  0  0  0  0  0  0
   -7.4112  -32.1266  -14.6109 C   0  0  1  0  0  0  0  0  0  0  0  0
   -7.2088  -31.5101  -15.9871 C   0  0  0  0  0  0  0  0  0  0  0  0
   -8.0903  -32.1463  -16.8421 O   0  0  0  0  0  0  0  0  0  0  0  0
  1  2  1  0
  1 10  1  0
  1 23  1  1
  2  3  1  0
  2  7  1  1
  3  4  1  0
  3  8  1  6
  5  4  1  0
  4  9  1  1
  5  6  1  6
 10  5  1  0
  6 11  1  0
 15 12  1  1
 13 14  1  0
 15 13  1  0
 16 15  1  0
 17 15  1  0
 21 16  1  0
 17 18  1  6
 19 17  1  0
 19 20  1  1
 21 19  1  0
 21 22  1  6
 22 23  1  0
M  END
$$$$
