
     RDKit          3D

 23 24  0  0  0  0  0  0  0  0999 V2000
   -7.3216  -34.5820  -15.3563 C   0  0  2  0  0  0  0  0  0  0  0  0
   -6.6236  -35.7313  -14.6877 C   0  0  1  0  0  0  0  0  0  0  0  0
   -5.3267  -36.1073  -15.3478 C   0  0  2  0  0  0  0  0  0  0  0  0
   -5.5492  -36.1066  -16.8381 C   0  0  1  0  0  0  0  0  0  0  0  0
   -6.1073  -34.7953  -17.3277 C   0  0  1  0  0  0  0  0  0  0  0  0
   -7.0643  -35.0588  -18.4762 C   0  0  0  0  0  0  0  0  0  0  0  0
   -6.3369  -35.4671  -13.3383 O   0  0  0  0  0  0  0  0  0  0  0  0
   -5.0178  -37.4259  -14.9843 O   0  0  0  0  0  0  0  0  0  0  0  0
   -4.3314  -36.4209  -17.4410 O   0  0  0  0  0  0  0  0  0  0  0  0
   -6.6103  -33.9922  -16.3631 O   0  0  0  0  0  0  0  0  0  0  0  0
   -7.3219  -33.9359  -19.2233 O   0  0  0  0  0  0  0  0  0  0  0  0
   -5.2203  -29.1240  -13.7266 O   0  0  0  0  0  0  0  0  0  0  0  0
   -5.9778  -28.6554  -15.8972 C   0  0  0  0  0  0  0  0  0  0  0  0
   -5.3647  -29.4670  -16.8263 O   0  0  0  0  0  0  0  0  0  0  0  0
   -6.2776  -29.3971  -14.5929 C   0  0  1  0  0  0  0  0  0  0  0  0
   -6.3805  -30.7299  -14.9004 O   0  0  0  0  0  0  0  0  0  0  0  0
   -7.5630  -28.9333  -13.9956 C   0  0  1  0  0  0  0  0  0  0  0  0
   -8.1625  -27.8888  -14.6677 O   0  0  0  0  0  0  0  0  0  0  0  0
   -8.4256  -30.1762  -13.9526 C   0  0  2  0  0  0  0  0  0  0  0  0
   -9.0904  -30.3071  -12.7536 O   0  0  0  0  0  0  0  0  0  0  0  0
   -7.3950  -31.2882  -14.1642 C   0  0  1  0  0  0  0  0  0  0  0  0
   -8.0668  -32.4393  -14.8981 C   0  0  0  0  0  0  0  0  0  0  0  0
   -7.5347  -33.6063  -14.3806 O   0  0  0  0  0  0  0  0  0  0  0  0
  1  2  1  0
  1 10  1  0
  1 23  1  1
  2  3  1  0
  2  7  1  1
  3  4  1  0
  3  8  1  1
  5  4  1  0
  4  9  1  6
  5  6  1  6
 10  5  1  0
  6 11  1  0
 15 12  1  1
 13 14  1  0
 15 13  1  0
 16 15  1  0
 17 15  1  0
 21 16  1  0
 17 18  1  6
 19 17  1  0
 19 20  1  1
 21 19  1  0
 21 22  1  6
 22 23  1  0
M  END
$$$$
