
     RDKit          3D

 23 24  0  0  0  0  0  0  0  0999 V2000
   -7.7462  -33.9093  -15.2498 C   0  0  2  0  0  0  0  0  0  0  0  0
   -7.5977  -34.9718  -14.2012 C   0  0  1  0  0  0  0  0  0  0  0  0
   -6.5121  -35.9472  -14.4376 C   0  0  2  0  0  0  0  0  0  0  0  0
   -6.2448  -36.2553  -15.8848 C   0  0  1  0  0  0  0  0  0  0  0  0
   -6.1463  -34.8985  -16.5934 C   0  0  1  0  0  0  0  0  0  0  0  0
   -5.7118  -35.0669  -18.0107 C   0  0  0  0  0  0  0  0  0  0  0  0
   -7.3423  -34.3157  -12.9849 O   0  0  0  0  0  0  0  0  0  0  0  0
   -6.8127  -37.1756  -13.8136 O   0  0  0  0  0  0  0  0  0  0  0  0
   -5.0344  -36.9068  -16.0364 O   0  0  0  0  0  0  0  0  0  0  0  0
   -7.3952  -34.3352  -16.5213 O   0  0  0  0  0  0  0  0  0  0  0  0
   -6.2237  -34.0269  -18.7798 O   0  0  0  0  0  0  0  0  0  0  0  0
   -5.0424  -28.6588  -13.7773 O   0  0  0  0  0  0  0  0  0  0  0  0
   -4.4626  -28.5001  -16.0871 C   0  0  0  0  0  0  0  0  0  0  0  0
   -4.0393  -29.5865  -16.8179 O   0  0  0  0  0  0  0  0  0  0  0  0
   -5.5070  -28.9089  -15.0628 C   0  0  1  0  0  0  0  0  0  0  0  0
   -5.8237  -30.2365  -15.2304 O   0  0  0  0  0  0  0  0  0  0  0  0
   -6.7545  -28.0988  -15.2644 C   0  0  1  0  0  0  0  0  0  0  0  0
   -6.6356  -27.1374  -16.2408 O   0  0  0  0  0  0  0  0  0  0  0  0
   -7.7675  -29.1777  -15.6346 C   0  0  2  0  0  0  0  0  0  0  0  0
   -9.0064  -28.9289  -15.0650 O   0  0  0  0  0  0  0  0  0  0  0  0
   -7.1596  -30.3550  -14.8930 C   0  0  1  0  0  0  0  0  0  0  0  0
   -7.7630  -31.6619  -15.3091 C   0  0  0  0  0  0  0  0  0  0  0  0
   -7.0346  -32.7592  -14.9365 O   0  0  0  0  0  0  0  0  0  0  0  0
  1  2  1  0
  1 10  1  0
  1 23  1  1
  2  3  1  0
  2  7  1  1
  3  4  1  0
  3  8  1  1
  5  4  1  0
  4  9  1  1
  5  6  1  0
  5 10  1  6
  6 11  1  6
 15 12  1  1
 13 14  1  1
 15 13  1  0
 16 15  1  0
 17 15  1  0
 21 16  1  6
 17 18  1  6
 19 17  1  0
 19 20  1  1
 21 19  1  0
 22 21  1  0
 22 23  1  6
M  END
$$$$
