
     RDKit          3D

 23 24  0  0  0  0  0  0  0  0999 V2000
   -5.7944  -35.2400  -15.3500 C   0  0  2  0  0  0  0  0  0  0  0  0
   -4.7895  -35.5399  -16.4249 C   0  0  1  0  0  0  0  0  0  0  0  0
   -5.4146  -35.9540  -17.7275 C   0  0  2  0  0  0  0  0  0  0  0  0
   -6.5227  -36.9276  -17.4195 C   0  0  1  0  0  0  0  0  0  0  0  0
   -7.5157  -36.3643  -16.4360 C   0  0  1  0  0  0  0  0  0  0  0  0
   -8.0217  -37.4826  -15.5429 C   0  0  0  0  0  0  0  0  0  0  0  0
   -3.9591  -34.4405  -16.6983 O   0  0  0  0  0  0  0  0  0  0  0  0
   -4.4535  -36.6549  -18.4700 O   0  0  0  0  0  0  0  0  0  0  0  0
   -7.1188  -37.2767  -18.6312 O   0  0  0  0  0  0  0  0  0  0  0  0
   -7.0963  -35.2682  -15.7643 O   0  0  0  0  0  0  0  0  0  0  0  0
   -9.1507  -37.1357  -14.8426 O   0  0  0  0  0  0  0  0  0  0  0  0
   -6.1576  -29.0811  -15.2062 O   0  0  0  0  0  0  0  0  0  0  0  0
   -8.2383  -29.8177  -16.0018 C   0  0  0  0  0  0  0  0  0  0  0  0
   -7.7935  -29.9043  -17.3028 O   0  0  0  0  0  0  0  0  0  0  0  0
   -7.1170  -30.0693  -14.9917 C   0  0  1  0  0  0  0  0  0  0  0  0
   -6.6380  -31.3331  -15.2260 O   0  0  0  0  0  0  0  0  0  0  0  0
   -7.6282  -29.9926  -13.5928 C   0  0  1  0  0  0  0  0  0  0  0  0
   -8.9533  -29.6252  -13.4871 O   0  0  0  0  0  0  0  0  0  0  0  0
   -7.3517  -31.3649  -13.0176 C   0  0  2  0  0  0  0  0  0  0  0  0
   -6.8218  -31.3000  -11.7481 O   0  0  0  0  0  0  0  0  0  0  0  0
   -6.3564  -31.9407  -14.0283 C   0  0  1  0  0  0  0  0  0  0  0  0
   -6.5485  -33.4486  -14.0936 C   0  0  0  0  0  0  0  0  0  0  0  0
   -5.5377  -33.9445  -14.8969 O   0  0  0  0  0  0  0  0  0  0  0  0
  1  2  1  0
  1 10  1  0
  1 23  1  6
  2  3  1  0
  2  7  1  6
  3  4  1  0
  3  8  1  6
  5  4  1  0
  4  9  1  6
  5  6  1  1
 10  5  1  0
  6 11  1  0
 15 12  1  1
 13 14  1  0
 15 13  1  0
 16 15  1  0
 17 15  1  0
 21 16  1  0
 17 18  1  6
 19 17  1  0
 19 20  1  1
 21 19  1  0
 21 22  1  6
 22 23  1  0
M  END
$$$$
