
     RDKit          3D

 23 24  0  0  0  0  0  0  0  0999 V2000
   -6.6331  -34.4097  -16.6802 C   0  0  2  0  0  0  0  0  0  0  0  0
   -7.5782  -35.3676  -17.3469 C   0  0  1  0  0  0  0  0  0  0  0  0
   -7.4535  -36.7777  -16.8417 C   0  0  2  0  0  0  0  0  0  0  0  0
   -5.9860  -37.1005  -16.7296 C   0  0  1  0  0  0  0  0  0  0  0  0
   -5.2477  -36.0976  -15.8812 C   0  0  1  0  0  0  0  0  0  0  0  0
   -3.8507  -35.9026  -16.4422 C   0  0  0  0  0  0  0  0  0  0  0  0
   -8.9212  -34.9896  -17.1841 O   0  0  0  0  0  0  0  0  0  0  0  0
   -7.9852  -37.6382  -17.8129 O   0  0  0  0  0  0  0  0  0  0  0  0
   -5.8821  -38.3970  -16.2261 O   0  0  0  0  0  0  0  0  0  0  0  0
   -5.9148  -34.9447  -15.6480 O   0  0  0  0  0  0  0  0  0  0  0  0
   -2.8668  -36.3081  -15.5745 O   0  0  0  0  0  0  0  0  0  0  0  0
   -7.5675  -30.9504  -11.5333 O   0  0  0  0  0  0  0  0  0  0  0  0
   -5.5184  -29.9801  -12.1374 C   0  0  0  0  0  0  0  0  0  0  0  0
   -4.7114  -30.9245  -11.5418 O   0  0  0  0  0  0  0  0  0  0  0  0
   -6.8258  -30.5835  -12.6550 C   0  0  1  0  0  0  0  0  0  0  0  0
   -6.4919  -31.6550  -13.4438 O   0  0  0  0  0  0  0  0  0  0  0  0
   -7.5865  -29.5942  -13.4717 C   0  0  1  0  0  0  0  0  0  0  0  0
   -7.0233  -28.3362  -13.5176 O   0  0  0  0  0  0  0  0  0  0  0  0
   -7.6940  -30.2397  -14.8365 C   0  0  2  0  0  0  0  0  0  0  0  0
   -8.9593  -30.1251  -15.3681 O   0  0  0  0  0  0  0  0  0  0  0  0
   -7.3267  -31.6944  -14.5321 C   0  0  1  0  0  0  0  0  0  0  0  0
   -6.6434  -32.2883  -15.7549 C   0  0  0  0  0  0  0  0  0  0  0  0
   -7.4041  -33.3744  -16.1481 O   0  0  0  0  0  0  0  0  0  0  0  0
  1  2  1  0
  1 10  1  0
  1 23  1  1
  2  3  1  0
  2  7  1  1
  3  4  1  0
  3  8  1  6
  5  4  1  0
  4  9  1  1
  5  6  1  6
 10  5  1  0
  6 11  1  0
 15 12  1  1
 13 14  1  0
 15 13  1  0
 16 15  1  0
 17 15  1  0
 21 16  1  0
 17 18  1  6
 19 17  1  0
 19 20  1  1
 21 19  1  0
 21 22  1  6
 22 23  1  0
M  END
$$$$
