
     RDKit          3D

 23 24  0  0  0  0  0  0  0  0999 V2000
   -5.2240  -34.1461  -15.9635 C   0  0  2  0  0  0  0  0  0  0  0  0
   -5.0741  -34.2258  -17.4540 C   0  0  1  0  0  0  0  0  0  0  0  0
   -5.8079  -35.3314  -18.1059 C   0  0  2  0  0  0  0  0  0  0  0  0
   -5.9295  -36.5816  -17.2795 C   0  0  1  0  0  0  0  0  0  0  0  0
   -6.4130  -36.1274  -15.8965 C   0  0  1  0  0  0  0  0  0  0  0  0
   -6.7370  -37.2998  -15.0328 C   0  0  0  0  0  0  0  0  0  0  0  0
   -5.5491  -33.0122  -17.9800 O   0  0  0  0  0  0  0  0  0  0  0  0
   -5.1682  -35.7033  -19.3064 O   0  0  0  0  0  0  0  0  0  0  0  0
   -6.8823  -37.4332  -17.8082 O   0  0  0  0  0  0  0  0  0  0  0  0
   -5.3948  -35.3816  -15.3587 O   0  0  0  0  0  0  0  0  0  0  0  0
   -7.4381  -36.8701  -13.9107 O   0  0  0  0  0  0  0  0  0  0  0  0
   -6.1882  -28.6279  -14.8019 O   0  0  0  0  0  0  0  0  0  0  0  0
   -8.4842  -29.0873  -15.2644 C   0  0  0  0  0  0  0  0  0  0  0  0
   -8.5657  -29.5560  -16.5556 O   0  0  0  0  0  0  0  0  0  0  0  0
   -7.2025  -29.5554  -14.5971 C   0  0  1  0  0  0  0  0  0  0  0  0
   -6.8536  -30.7932  -15.0839 O   0  0  0  0  0  0  0  0  0  0  0  0
   -7.4202  -29.6764  -13.1169 C   0  0  1  0  0  0  0  0  0  0  0  0
   -8.6650  -29.2591  -12.7069 O   0  0  0  0  0  0  0  0  0  0  0  0
   -7.2082  -31.1706  -12.8942 C   0  0  2  0  0  0  0  0  0  0  0  0
   -6.5283  -31.4170  -11.7117 O   0  0  0  0  0  0  0  0  0  0  0  0
   -6.2471  -31.4583  -14.0340 C   0  0  1  0  0  0  0  0  0  0  0  0
   -6.0797  -32.9270  -14.2795 C   0  0  0  0  0  0  0  0  0  0  0  0
   -6.2577  -33.3008  -15.5841 O   0  0  0  0  0  0  0  0  0  0  0  0
  1  2  1  0
  1 10  1  0
  1 23  1  6
  2  3  1  0
  2  7  1  6
  3  4  1  0
  3  8  1  6
  5  4  1  0
  4  9  1  6
  5  6  1  0
  5 10  1  1
  6 11  1  6
 15 12  1  1
 13 14  1  1
 15 13  1  0
 16 15  1  0
 17 15  1  0
 21 16  1  6
 17 18  1  6
 19 17  1  0
 19 20  1  1
 21 19  1  0
 22 21  1  0
 22 23  1  6
M  END
$$$$
