
     RDKit          3D

 23 24  0  0  0  0  0  0  0  0999 V2000
   -6.5524  -35.0765  -14.9298 C   0  0  2  0  0  0  0  0  0  0  0  0
   -5.2799  -35.8586  -14.7902 C   0  0  1  0  0  0  0  0  0  0  0  0
   -4.6850  -36.3313  -16.0584 C   0  0  2  0  0  0  0  0  0  0  0  0
   -5.6794  -36.6704  -17.1340 C   0  0  1  0  0  0  0  0  0  0  0  0
   -6.6467  -35.4820  -17.2036 C   0  0  1  0  0  0  0  0  0  0  0  0
   -7.5835  -35.6231  -18.3561 C   0  0  0  0  0  0  0  0  0  0  0  0
   -4.3495  -35.0191  -14.1540 O   0  0  0  0  0  0  0  0  0  0  0  0
   -3.9196  -37.4948  -15.8368 O   0  0  0  0  0  0  0  0  0  0  0  0
   -5.0571  -36.7890  -18.3633 O   0  0  0  0  0  0  0  0  0  0  0  0
   -7.3256  -35.4681  -16.0115 O   0  0  0  0  0  0  0  0  0  0  0  0
   -8.4378  -36.6976  -18.1309 O   0  0  0  0  0  0  0  0  0  0  0  0
   -5.5084  -29.1090  -14.4321 O   0  0  0  0  0  0  0  0  0  0  0  0
   -7.2080  -28.7719  -16.0735 C   0  0  0  0  0  0  0  0  0  0  0  0
   -7.8630  -29.5755  -16.9783 O   0  0  0  0  0  0  0  0  0  0  0  0
   -6.7410  -29.5758  -14.8724 C   0  0  1  0  0  0  0  0  0  0  0  0
   -6.6813  -30.9090  -15.2037 O   0  0  0  0  0  0  0  0  0  0  0  0
   -7.7204  -29.4143  -13.7464 C   0  0  1  0  0  0  0  0  0  0  0  0
   -8.7359  -28.5286  -14.0219 O   0  0  0  0  0  0  0  0  0  0  0  0
   -8.2290  -30.8420  -13.5718 C   0  0  2  0  0  0  0  0  0  0  0  0
   -8.4098  -31.1573  -12.2343 O   0  0  0  0  0  0  0  0  0  0  0  0
   -7.0057  -31.6026  -14.0520 C   0  0  1  0  0  0  0  0  0  0  0  0
   -7.2967  -33.0523  -14.2946 C   0  0  0  0  0  0  0  0  0  0  0  0
   -6.3235  -33.7090  -14.9984 O   0  0  0  0  0  0  0  0  0  0  0  0
  1  2  1  0
  1 10  1  0
  1 23  1  6
  2  3  1  0
  2  7  1  6
  3  4  1  0
  3  8  1  1
  5  4  1  0
  4  9  1  6
  5  6  1  0
  5 10  1  1
  6 11  1  6
 15 12  1  1
 13 14  1  1
 15 13  1  0
 16 15  1  0
 17 15  1  0
 21 16  1  6
 17 18  1  6
 19 17  1  0
 19 20  1  1
 21 19  1  0
 22 21  1  0
 22 23  1  6
M  END
$$$$
