
     RDKit          3D

 23 24  0  0  0  0  0  0  0  0999 V2000
   -6.8952  -35.3040  -15.3789 C   0  0  2  0  0  0  0  0  0  0  0  0
   -5.8323  -36.3233  -15.0929 C   0  0  1  0  0  0  0  0  0  0  0  0
   -4.9503  -36.6550  -16.2322 C   0  0  2  0  0  0  0  0  0  0  0  0
   -5.6122  -36.5951  -17.5809 C   0  0  1  0  0  0  0  0  0  0  0  0
   -6.3559  -35.2543  -17.6262 C   0  0  1  0  0  0  0  0  0  0  0  0
   -6.9153  -35.0000  -18.9857 C   0  0  0  0  0  0  0  0  0  0  0  0
   -5.0363  -35.8069  -14.0562 O   0  0  0  0  0  0  0  0  0  0  0  0
   -4.4399  -37.9621  -16.0922 O   0  0  0  0  0  0  0  0  0  0  0  0
   -4.6712  -36.5976  -18.5942 O   0  0  0  0  0  0  0  0  0  0  0  0
   -7.3527  -35.3352  -16.6870 O   0  0  0  0  0  0  0  0  0  0  0  0
   -7.5710  -33.7731  -18.9957 O   0  0  0  0  0  0  0  0  0  0  0  0
   -5.3836  -29.8535  -13.1731 O   0  0  0  0  0  0  0  0  0  0  0  0
   -6.0195  -28.9533  -15.2902 C   0  0  0  0  0  0  0  0  0  0  0  0
   -5.5387  -29.5648  -16.4254 O   0  0  0  0  0  0  0  0  0  0  0  0
   -6.3075  -29.9752  -14.2040 C   0  0  1  0  0  0  0  0  0  0  0  0
   -6.2908  -31.2400  -14.7434 O   0  0  0  0  0  0  0  0  0  0  0  0
   -7.6714  -29.7276  -13.6282 C   0  0  1  0  0  0  0  0  0  0  0  0
   -8.2897  -28.6093  -14.1369 O   0  0  0  0  0  0  0  0  0  0  0  0
   -8.4027  -31.0135  -14.0009 C   0  0  2  0  0  0  0  0  0  0  0  0
   -9.2459  -31.4321  -12.9835 O   0  0  0  0  0  0  0  0  0  0  0  0
   -7.2242  -31.9705  -14.0308 C   0  0  1  0  0  0  0  0  0  0  0  0
   -7.5704  -33.2788  -14.6739 C   0  0  0  0  0  0  0  0  0  0  0  0
   -6.4851  -34.0154  -15.0650 O   0  0  0  0  0  0  0  0  0  0  0  0
  1  2  1  0
  1 10  1  0
  1 23  1  6
  2  3  1  0
  2  7  1  1
  3  4  1  0
  3  8  1  1
  5  4  1  0
  4  9  1  6
  5  6  1  0
  5 10  1  1
  6 11  1  6
 15 12  1  1
 13 14  1  1
 15 13  1  0
 16 15  1  0
 17 15  1  0
 21 16  1  6
 17 18  1  6
 19 17  1  0
 19 20  1  1
 21 19  1  0
 22 21  1  0
 22 23  1  6
M  END
$$$$
