
     RDKit          3D

 23 24  0  0  0  0  0  0  0  0999 V2000
   -7.4767  -34.3762  -16.4037 C   0  0  2  0  0  0  0  0  0  0  0  0
   -7.8194  -35.7654  -15.9480 C   0  0  1  0  0  0  0  0  0  0  0  0
   -6.7610  -36.7800  -16.2785 C   0  0  2  0  0  0  0  0  0  0  0  0
   -6.3033  -36.5269  -17.6917 C   0  0  1  0  0  0  0  0  0  0  0  0
   -5.8478  -35.1050  -17.8944 C   0  0  1  0  0  0  0  0  0  0  0  0
   -6.2197  -34.6576  -19.2965 C   0  0  0  0  0  0  0  0  0  0  0  0
   -8.0346  -35.8324  -14.5615 O   0  0  0  0  0  0  0  0  0  0  0  0
   -7.3544  -38.0505  -16.2657 O   0  0  0  0  0  0  0  0  0  0  0  0
   -5.2967  -37.4499  -17.9749 O   0  0  0  0  0  0  0  0  0  0  0  0
   -6.2197  -34.2414  -16.9225 O   0  0  0  0  0  0  0  0  0  0  0  0
   -5.7679  -33.3947  -19.5902 O   0  0  0  0  0  0  0  0  0  0  0  0
   -5.9554  -30.0303  -12.3044 O   0  0  0  0  0  0  0  0  0  0  0  0
   -4.9797  -29.4111  -14.3463 C   0  0  0  0  0  0  0  0  0  0  0  0
   -4.2554  -30.3819  -15.0025 O   0  0  0  0  0  0  0  0  0  0  0  0
   -6.2281  -29.9818  -13.6705 C   0  0  1  0  0  0  0  0  0  0  0  0
   -6.4489  -31.2228  -14.2116 O   0  0  0  0  0  0  0  0  0  0  0  0
   -7.4177  -29.1193  -13.9257 C   0  0  1  0  0  0  0  0  0  0  0  0
   -7.1452  -27.9594  -14.6202 O   0  0  0  0  0  0  0  0  0  0  0  0
   -8.3876  -30.0253  -14.6531 C   0  0  2  0  0  0  0  0  0  0  0  0
   -9.6727  -29.9048  -14.1726 O   0  0  0  0  0  0  0  0  0  0  0  0
   -7.7978  -31.4111  -14.3788 C   0  0  1  0  0  0  0  0  0  0  0  0
   -8.1060  -32.3130  -15.5648 C   0  0  0  0  0  0  0  0  0  0  0  0
   -7.5474  -33.5465  -15.2830 O   0  0  0  0  0  0  0  0  0  0  0  0
  1  2  1  0
  1 10  1  0
  1 23  1  1
  2  3  1  0
  2  7  1  1
  3  4  1  0
  3  8  1  6
  5  4  1  0
  4  9  1  1
  5  6  1  6
 10  5  1  0
  6 11  1  0
 15 12  1  1
 13 14  1  0
 15 13  1  0
 16 15  1  0
 17 15  1  0
 21 16  1  0
 17 18  1  6
 19 17  1  0
 19 20  1  1
 21 19  1  0
 21 22  1  6
 22 23  1  0
M  END
$$$$
