
     RDKit          3D

 23 24  0  0  0  0  0  0  0  0999 V2000
   -7.3876  -31.9406  -15.9920 C   0  0  2  0  0  0  0  0  0  0  0  0
   -7.5787  -31.1252  -14.7474 C   0  0  1  0  0  0  0  0  0  0  0  0
   -7.2411  -31.8120  -13.4825 C   0  0  2  0  0  0  0  0  0  0  0  0
   -7.5064  -33.2920  -13.4779 C   0  0  1  0  0  0  0  0  0  0  0  0
   -6.8823  -33.8361  -14.7692 C   0  0  1  0  0  0  0  0  0  0  0  0
   -6.9304  -35.3269  -14.7983 C   0  0  0  0  0  0  0  0  0  0  0  0
   -6.7541  -29.9935  -14.8671 O   0  0  0  0  0  0  0  0  0  0  0  0
   -7.9845  -31.2668  -12.4154 O   0  0  0  0  0  0  0  0  0  0  0  0
   -6.8789  -33.9036  -12.4080 O   0  0  0  0  0  0  0  0  0  0  0  0
   -7.6050  -33.2964  -15.8030 O   0  0  0  0  0  0  0  0  0  0  0  0
   -5.6483  -35.8289  -14.9967 O   0  0  0  0  0  0  0  0  0  0  0  0
   -1.9868  -31.4550  -18.7618 O   0  0  0  0  0  0  0  0  0  0  0  0
   -1.9807  -33.8415  -18.7246 C   0  0  0  0  0  0  0  0  0  0  0  0
   -1.7229  -34.0818  -17.3944 O   0  0  0  0  0  0  0  0  0  0  0  0
   -2.7995  -32.5740  -18.8981 C   0  0  1  0  0  0  0  0  0  0  0  0
   -3.8275  -32.5594  -17.9849 O   0  0  0  0  0  0  0  0  0  0  0  0
   -3.3940  -32.5429  -20.2760 C   0  0  1  0  0  0  0  0  0  0  0  0
   -2.9966  -33.5921  -21.0716 O   0  0  0  0  0  0  0  0  0  0  0  0
   -4.8879  -32.5824  -19.9694 C   0  0  2  0  0  0  0  0  0  0  0  0
   -5.6047  -31.7618  -20.8261 O   0  0  0  0  0  0  0  0  0  0  0  0
   -4.8801  -31.9128  -18.6066 C   0  0  1  0  0  0  0  0  0  0  0  0
   -6.1842  -32.0741  -17.8864 C   0  0  0  0  0  0  0  0  0  0  0  0
   -6.1342  -31.7496  -16.5576 O   0  0  0  0  0  0  0  0  0  0  0  0
  1  2  1  0
  1 10  1  0
  1 23  1  1
  2  3  1  0
  2  7  1  6
  3  4  1  0
  3  8  1  1
  5  4  1  0
  4  9  1  1
  5  6  1  0
  5 10  1  6
  6 11  1  6
 15 12  1  1
 13 14  1  1
 15 13  1  0
 16 15  1  0
 17 15  1  0
 21 16  1  1
 17 18  1  6
 19 17  1  0
 19 20  1  6
 21 19  1  0
 22 21  1  0
 22 23  1  6
M  END
$$$$
