
     RDKit          3D

 23 24  0  0  0  0  0  0  0  0999 V2000
   -6.3317  -35.4217  -15.1746 C   0  0  2  0  0  0  0  0  0  0  0  0
   -4.9528  -35.8721  -15.5633 C   0  0  1  0  0  0  0  0  0  0  0  0
   -4.7868  -36.0766  -17.0430 C   0  0  2  0  0  0  0  0  0  0  0  0
   -6.0038  -36.8077  -17.5480 C   0  0  1  0  0  0  0  0  0  0  0  0
   -7.2828  -36.0981  -17.1857 C   0  0  1  0  0  0  0  0  0  0  0  0
   -8.3619  -37.1282  -16.9049 C   0  0  0  0  0  0  0  0  0  0  0  0
   -3.9625  -34.9612  -15.1603 O   0  0  0  0  0  0  0  0  0  0  0  0
   -3.6898  -36.9262  -17.2462 O   0  0  0  0  0  0  0  0  0  0  0  0
   -5.8559  -36.9597  -18.9266 O   0  0  0  0  0  0  0  0  0  0  0  0
   -7.1600  -35.1519  -16.2275 O   0  0  0  0  0  0  0  0  0  0  0  0
   -9.6284  -36.6002  -16.9545 O   0  0  0  0  0  0  0  0  0  0  0  0
   -5.6604  -29.5451  -13.7412 O   0  0  0  0  0  0  0  0  0  0  0  0
   -6.2570  -29.8900  -15.9840 C   0  0  0  0  0  0  0  0  0  0  0  0
   -6.1135  -30.9695  -16.8277 O   0  0  0  0  0  0  0  0  0  0  0  0
   -6.5040  -30.3192  -14.5363 C   0  0  1  0  0  0  0  0  0  0  0  0
   -6.2232  -31.6597  -14.4587 O   0  0  0  0  0  0  0  0  0  0  0  0
   -7.9256  -30.0948  -14.1455 C   0  0  1  0  0  0  0  0  0  0  0  0
   -8.6924  -29.4727  -15.1084 O   0  0  0  0  0  0  0  0  0  0  0  0
   -8.4373  -31.4734  -13.7875 C   0  0  2  0  0  0  0  0  0  0  0  0
   -9.1798  -31.4679  -12.6276 O   0  0  0  0  0  0  0  0  0  0  0  0
   -7.1374  -32.2675  -13.6354 C   0  0  1  0  0  0  0  0  0  0  0  0
   -7.4000  -33.7104  -14.0404 C   0  0  0  0  0  0  0  0  0  0  0  0
   -6.1886  -34.2352  -14.4527 O   0  0  0  0  0  0  0  0  0  0  0  0
  1  2  1  0
  1 10  1  0
  1 23  1  6
  2  3  1  0
  2  7  1  6
  3  4  1  0
  3  8  1  1
  5  4  1  0
  4  9  1  6
  5  6  1  1
 10  5  1  0
  6 11  1  0
 15 12  1  1
 13 14  1  0
 15 13  1  0
 16 15  1  0
 17 15  1  0
 21 16  1  0
 17 18  1  6
 19 17  1  0
 19 20  1  1
 21 19  1  0
 21 22  1  6
 22 23  1  0
M  END
$$$$
