
     RDKit          3D

 23 24  0  0  0  0  0  0  0  0999 V2000
   -7.4594  -33.5138  -17.4443 C   0  0  2  0  0  0  0  0  0  0  0  0
   -8.1719  -34.7411  -17.9304 C   0  0  1  0  0  0  0  0  0  0  0  0
   -7.4861  -36.0218  -17.6559 C   0  0  2  0  0  0  0  0  0  0  0  0
   -5.9844  -35.9496  -17.6730 C   0  0  1  0  0  0  0  0  0  0  0  0
   -5.6104  -34.7436  -16.8021 C   0  0  1  0  0  0  0  0  0  0  0  0
   -4.1341  -34.6680  -16.6007 C   0  0  0  0  0  0  0  0  0  0  0  0
   -9.4247  -34.7679  -17.2941 O   0  0  0  0  0  0  0  0  0  0  0  0
   -7.8533  -36.9894  -18.6139 O   0  0  0  0  0  0  0  0  0  0  0  0
   -5.4284  -37.0796  -17.1016 O   0  0  0  0  0  0  0  0  0  0  0  0
   -6.0786  -33.6342  -17.4596 O   0  0  0  0  0  0  0  0  0  0  0  0
   -3.5155  -34.3665  -17.8096 O   0  0  0  0  0  0  0  0  0  0  0  0
   -7.6438  -31.7501  -11.6512 O   0  0  0  0  0  0  0  0  0  0  0  0
   -5.3768  -31.0756  -11.9713 C   0  0  0  0  0  0  0  0  0  0  0  0
   -4.5802  -32.1089  -12.4088 O   0  0  0  0  0  0  0  0  0  0  0  0
   -6.7706  -31.1754  -12.5668 C   0  0  1  0  0  0  0  0  0  0  0  0
   -6.7232  -31.8997  -13.7348 O   0  0  0  0  0  0  0  0  0  0  0  0
   -7.2816  -29.8007  -12.8863 C   0  0  1  0  0  0  0  0  0  0  0  0
   -6.4335  -28.7921  -12.4924 O   0  0  0  0  0  0  0  0  0  0  0  0
   -7.4321  -29.8713  -14.4027 C   0  0  2  0  0  0  0  0  0  0  0  0
   -8.5703  -29.2069  -14.8322 O   0  0  0  0  0  0  0  0  0  0  0  0
   -7.6941  -31.3589  -14.5580 C   0  0  1  0  0  0  0  0  0  0  0  0
   -7.5828  -31.8102  -15.9825 C   0  0  0  0  0  0  0  0  0  0  0  0
   -7.8745  -33.1335  -16.1753 O   0  0  0  0  0  0  0  0  0  0  0  0
  1  2  1  0
  1 10  1  0
  1 23  1  1
  2  3  1  0
  2  7  1  1
  3  4  1  0
  3  8  1  6
  5  4  1  0
  4  9  1  1
  5  6  1  0
  5 10  1  6
  6 11  1  6
 15 12  1  1
 13 14  1  1
 15 13  1  0
 16 15  1  0
 17 15  1  0
 21 16  1  1
 17 18  1  6
 19 17  1  0
 19 20  1  1
 21 19  1  0
 22 21  1  0
 22 23  1  6
M  END
$$$$
