
     RDKit          3D

 23 24  0  0  0  0  0  0  0  0999 V2000
   -7.5159  -34.0149  -16.8974 C   0  0  2  0  0  0  0  0  0  0  0  0
   -7.9789  -35.4313  -16.7112 C   0  0  1  0  0  0  0  0  0  0  0  0
   -6.8582  -36.3939  -16.4343 C   0  0  2  0  0  0  0  0  0  0  0  0
   -5.7295  -36.0735  -17.3798 C   0  0  1  0  0  0  0  0  0  0  0  0
   -5.3082  -34.6294  -17.2916 C   0  0  1  0  0  0  0  0  0  0  0  0
   -4.8951  -34.1458  -18.6700 C   0  0  0  0  0  0  0  0  0  0  0  0
   -8.8981  -35.5559  -15.6564 O   0  0  0  0  0  0  0  0  0  0  0  0
   -7.3020  -37.6848  -16.7550 O   0  0  0  0  0  0  0  0  0  0  0  0
   -4.6825  -36.9482  -17.0898 O   0  0  0  0  0  0  0  0  0  0  0  0
   -6.1848  -33.8156  -16.6608 O   0  0  0  0  0  0  0  0  0  0  0  0
   -4.3120  -32.9029  -18.6458 O   0  0  0  0  0  0  0  0  0  0  0  0
   -6.5709  -31.2637  -11.6813 O   0  0  0  0  0  0  0  0  0  0  0  0
   -4.7963  -30.5334  -13.0312 C   0  0  0  0  0  0  0  0  0  0  0  0
   -4.1189  -31.4887  -13.7566 O   0  0  0  0  0  0  0  0  0  0  0  0
   -6.2994  -30.8133  -12.9722 C   0  0  1  0  0  0  0  0  0  0  0  0
   -6.5730  -31.7553  -13.9310 O   0  0  0  0  0  0  0  0  0  0  0  0
   -7.0863  -29.5798  -13.2610 C   0  0  1  0  0  0  0  0  0  0  0  0
   -6.3257  -28.4410  -13.4248 O   0  0  0  0  0  0  0  0  0  0  0  0
   -7.8921  -29.9301  -14.4933 C   0  0  2  0  0  0  0  0  0  0  0  0
   -9.2024  -29.5183  -14.3928 O   0  0  0  0  0  0  0  0  0  0  0  0
   -7.7692  -31.4556  -14.5328 C   0  0  1  0  0  0  0  0  0  0  0  0
   -7.8071  -31.9080  -15.9850 C   0  0  0  0  0  0  0  0  0  0  0  0
   -8.2161  -33.2292  -15.9800 O   0  0  0  0  0  0  0  0  0  0  0  0
  1  2  1  0
  1 10  1  0
  1 23  1  1
  2  3  1  0
  2  7  1  1
  3  4  1  0
  3  8  1  6
  5  4  1  0
  4  9  1  1
  5  6  1  6
 10  5  1  0
  6 11  1  0
 15 12  1  1
 13 14  1  0
 15 13  1  0
 16 15  1  0
 17 15  1  0
 21 16  1  0
 17 18  1  6
 19 17  1  0
 19 20  1  1
 21 19  1  0
 21 22  1  6
 22 23  1  0
M  END
$$$$
