
     RDKit          3D

 23 24  0  0  0  0  0  0  0  0999 V2000
   -6.7584  -34.4182  -16.6863 C   0  0  2  0  0  0  0  0  0  0  0  0
   -7.6315  -35.6202  -16.8942 C   0  0  1  0  0  0  0  0  0  0  0  0
   -7.0867  -36.8950  -16.3805 C   0  0  2  0  0  0  0  0  0  0  0  0
   -5.5893  -37.0140  -16.4481 C   0  0  1  0  0  0  0  0  0  0  0  0
   -5.0359  -35.7140  -15.8510 C   0  0  1  0  0  0  0  0  0  0  0  0
   -3.5528  -35.7828  -15.7048 C   0  0  0  0  0  0  0  0  0  0  0  0
   -8.8465  -35.3641  -16.2359 O   0  0  0  0  0  0  0  0  0  0  0  0
   -7.6100  -37.9814  -17.1117 O   0  0  0  0  0  0  0  0  0  0  0  0
   -5.1414  -38.0669  -15.6715 O   0  0  0  0  0  0  0  0  0  0  0  0
   -5.4033  -34.7091  -16.7098 O   0  0  0  0  0  0  0  0  0  0  0  0
   -2.9749  -36.0303  -16.9458 O   0  0  0  0  0  0  0  0  0  0  0  0
   -7.9312  -31.1025  -11.7211 O   0  0  0  0  0  0  0  0  0  0  0  0
   -5.6469  -30.4509  -11.9533 C   0  0  0  0  0  0  0  0  0  0  0  0
   -4.6048  -30.4042  -12.8508 O   0  0  0  0  0  0  0  0  0  0  0  0
   -6.9525  -30.7837  -12.6547 C   0  0  1  0  0  0  0  0  0  0  0  0
   -6.7511  -31.8162  -13.5403 O   0  0  0  0  0  0  0  0  0  0  0  0
   -7.4286  -29.5878  -13.4269 C   0  0  1  0  0  0  0  0  0  0  0  0
   -6.6451  -28.4710  -13.2518 O   0  0  0  0  0  0  0  0  0  0  0  0
   -7.3838  -30.1074  -14.8605 C   0  0  2  0  0  0  0  0  0  0  0  0
   -8.4626  -29.6503  -15.6010 O   0  0  0  0  0  0  0  0  0  0  0  0
   -7.6129  -31.5852  -14.5970 C   0  0  1  0  0  0  0  0  0  0  0  0
   -7.3174  -32.4295  -15.7991 C   0  0  0  0  0  0  0  0  0  0  0  0
   -7.0643  -33.7437  -15.5121 O   0  0  0  0  0  0  0  0  0  0  0  0
  1  2  1  0
  1 10  1  0
  1 23  1  1
  2  3  1  0
  2  7  1  1
  3  4  1  0
  3  8  1  6
  5  4  1  0
  4  9  1  1
  5  6  1  0
  5 10  1  6
  6 11  1  6
 15 12  1  1
 13 14  1  1
 15 13  1  0
 16 15  1  0
 17 15  1  0
 21 16  1  1
 17 18  1  6
 19 17  1  0
 19 20  1  6
 21 19  1  0
 22 21  1  0
 22 23  1  6
M  END
$$$$
