
     RDKit          3D

 23 24  0  0  0  0  0  0  0  0999 V2000
   -7.3335  -33.2295  -17.5568 C   0  0  2  0  0  0  0  0  0  0  0  0
   -8.3303  -33.9477  -18.4204 C   0  0  1  0  0  0  0  0  0  0  0  0
   -7.9677  -35.3824  -18.6834 C   0  0  2  0  0  0  0  0  0  0  0  0
   -6.4962  -35.4362  -19.0028 C   0  0  1  0  0  0  0  0  0  0  0  0
   -5.6580  -34.7992  -17.9247 C   0  0  1  0  0  0  0  0  0  0  0  0
   -4.4636  -34.1128  -18.5623 C   0  0  0  0  0  0  0  0  0  0  0  0
   -9.6185  -33.9450  -17.8604 O   0  0  0  0  0  0  0  0  0  0  0  0
   -8.6485  -35.8008  -19.8357 O   0  0  0  0  0  0  0  0  0  0  0  0
   -6.1636  -36.7749  -19.2092 O   0  0  0  0  0  0  0  0  0  0  0  0
   -6.3409  -34.0226  -17.0535 O   0  0  0  0  0  0  0  0  0  0  0  0
   -3.5091  -33.7446  -17.6464 O   0  0  0  0  0  0  0  0  0  0  0  0
   -6.8018  -32.7717  -11.7178 O   0  0  0  0  0  0  0  0  0  0  0  0
   -4.6954  -32.4546  -12.7015 C   0  0  0  0  0  0  0  0  0  0  0  0
   -4.3178  -33.3150  -13.7089 O   0  0  0  0  0  0  0  0  0  0  0  0
   -6.1827  -32.1023  -12.7722 C   0  0  1  0  0  0  0  0  0  0  0  0
   -6.6371  -32.5117  -14.0000 O   0  0  0  0  0  0  0  0  0  0  0  0
   -6.3923  -30.6317  -12.6395 C   0  0  1  0  0  0  0  0  0  0  0  0
   -5.2438  -29.9101  -12.3898 O   0  0  0  0  0  0  0  0  0  0  0  0
   -7.0674  -30.2318  -13.9337 C   0  0  2  0  0  0  0  0  0  0  0  0
   -8.1250  -29.3745  -13.7257 O   0  0  0  0  0  0  0  0  0  0  0  0
   -7.5227  -31.5842  -14.4881 C   0  0  1  0  0  0  0  0  0  0  0  0
   -7.5007  -31.5179  -16.0080 C   0  0  0  0  0  0  0  0  0  0  0  0
   -8.0333  -32.7092  -16.4664 O   0  0  0  0  0  0  0  0  0  0  0  0
  1  2  1  0
  1 10  1  0
  1 23  1  1
  2  3  1  0
  2  7  1  1
  3  4  1  0
  3  8  1  6
  5  4  1  0
  4  9  1  1
  5  6  1  6
 10  5  1  0
  6 11  1  0
 15 12  1  1
 13 14  1  0
 15 13  1  0
 16 15  1  0
 17 15  1  0
 21 16  1  0
 17 18  1  6
 19 17  1  0
 19 20  1  1
 21 19  1  0
 21 22  1  6
 22 23  1  0
M  END
$$$$
