
     RDKit          3D

 23 24  0  0  0  0  0  0  0  0999 V2000
   -7.4142  -32.8897  -18.0055 C   0  0  2  0  0  0  0  0  0  0  0  0
   -8.1433  -33.9238  -18.8114 C   0  0  1  0  0  0  0  0  0  0  0  0
   -7.3861  -35.1640  -19.0836 C   0  0  2  0  0  0  0  0  0  0  0  0
   -5.9025  -34.9760  -19.2398 C   0  0  1  0  0  0  0  0  0  0  0  0
   -5.4581  -34.1209  -18.0465 C   0  0  1  0  0  0  0  0  0  0  0  0
   -3.9714  -34.0072  -17.9956 C   0  0  0  0  0  0  0  0  0  0  0  0
   -9.3011  -34.2644  -18.0913 O   0  0  0  0  0  0  0  0  0  0  0  0
   -7.8430  -35.7656  -20.2745 O   0  0  0  0  0  0  0  0  0  0  0  0
   -5.2402  -36.1880  -19.1687 O   0  0  0  0  0  0  0  0  0  0  0  0
   -6.0439  -32.8917  -18.2146 O   0  0  0  0  0  0  0  0  0  0  0  0
   -3.5534  -32.9967  -18.8554 O   0  0  0  0  0  0  0  0  0  0  0  0
   -7.7841  -33.0566  -11.9472 O   0  0  0  0  0  0  0  0  0  0  0  0
   -5.4153  -32.8903  -12.1870 C   0  0  0  0  0  0  0  0  0  0  0  0
   -5.1875  -34.2175  -12.4701 O   0  0  0  0  0  0  0  0  0  0  0  0
   -6.7790  -32.4537  -12.6937 C   0  0  1  0  0  0  0  0  0  0  0  0
   -6.8957  -32.7606  -14.0291 O   0  0  0  0  0  0  0  0  0  0  0  0
   -6.9221  -30.9676  -12.5385 C   0  0  1  0  0  0  0  0  0  0  0  0
   -5.8543  -30.3741  -11.9067 O   0  0  0  0  0  0  0  0  0  0  0  0
   -7.0599  -30.5168  -13.9894 C   0  0  2  0  0  0  0  0  0  0  0  0
   -7.9868  -29.4943  -14.1183 O   0  0  0  0  0  0  0  0  0  0  0  0
   -7.6851  -31.7680  -14.5805 C   0  0  1  0  0  0  0  0  0  0  0  0
   -7.6670  -31.7592  -16.0788 C   0  0  0  0  0  0  0  0  0  0  0  0
   -7.6728  -33.0046  -16.6465 O   0  0  0  0  0  0  0  0  0  0  0  0
  1  2  1  0
  1 10  1  0
  1 23  1  1
  2  3  1  0
  2  7  1  1
  3  4  1  0
  3  8  1  6
  5  4  1  0
  4  9  1  1
  5  6  1  0
  5 10  1  6
  6 11  1  6
 15 12  1  1
 13 14  1  1
 15 13  1  0
 16 15  1  0
 17 15  1  0
 21 16  1  1
 17 18  1  6
 19 17  1  0
 19 20  1  1
 21 19  1  0
 22 21  1  0
 22 23  1  6
M  END
$$$$
