
     RDKit          3D

 23 24  0  0  0  0  0  0  0  0999 V2000
   -6.5233  -32.0004  -14.6199 C   0  0  2  0  0  0  0  0  0  0  0  0
   -7.0309  -31.2653  -13.4128 C   0  0  1  0  0  0  0  0  0  0  0  0
   -7.3900  -29.8331  -13.6935 C   0  0  2  0  0  0  0  0  0  0  0  0
   -6.2995  -29.2424  -14.5493 C   0  0  1  0  0  0  0  0  0  0  0  0
   -6.0578  -30.0505  -15.7980 C   0  0  1  0  0  0  0  0  0  0  0  0
   -4.5785  -30.0142  -16.1366 C   0  0  0  0  0  0  0  0  0  0  0  0
   -8.1696  -31.8739  -12.8595 O   0  0  0  0  0  0  0  0  0  0  0  0
   -7.3762  -29.1331  -12.4786 O   0  0  0  0  0  0  0  0  0  0  0  0
   -6.6606  -27.9256  -14.8336 O   0  0  0  0  0  0  0  0  0  0  0  0
   -6.5914  -31.2930  -15.7872 O   0  0  0  0  0  0  0  0  0  0  0  0
   -3.8276  -29.3821  -15.1764 O   0  0  0  0  0  0  0  0  0  0  0  0
   -7.4510  -36.4147  -18.5782 O   0  0  0  0  0  0  0  0  0  0  0  0
   -5.1330  -36.4977  -18.2249 C   0  0  0  0  0  0  0  0  0  0  0  0
   -4.8826  -35.4919  -19.1323 O   0  0  0  0  0  0  0  0  0  0  0  0
   -6.5023  -36.3453  -17.5593 C   0  0  1  0  0  0  0  0  0  0  0  0
   -6.5052  -35.1352  -16.9135 O   0  0  0  0  0  0  0  0  0  0  0  0
   -6.7384  -37.4305  -16.5640 C   0  0  1  0  0  0  0  0  0  0  0  0
   -5.7442  -38.3849  -16.5112 O   0  0  0  0  0  0  0  0  0  0  0  0
   -6.9219  -36.7004  -15.2510 C   0  0  2  0  0  0  0  0  0  0  0  0
   -7.9823  -37.1947  -14.5244 O   0  0  0  0  0  0  0  0  0  0  0  0
   -7.1631  -35.2619  -15.7160 C   0  0  1  0  0  0  0  0  0  0  0  0
   -6.6159  -34.3126  -14.6604 C   0  0  0  0  0  0  0  0  0  0  0  0
   -7.3257  -33.1316  -14.7803 O   0  0  0  0  0  0  0  0  0  0  0  0
  1  2  1  0
  1 10  1  0
  1 23  1  6
  2  3  1  0
  2  7  1  6
  3  4  1  0
  3  8  1  1
  5  4  1  0
  4  9  1  6
  5  6  1  1
 10  5  1  0
  6 11  1  0
 15 12  1  6
 13 14  1  0
 15 13  1  0
 16 15  1  0
 17 15  1  0
 21 16  1  0
 17 18  1  1
 19 17  1  0
 19 20  1  6
 21 19  1  0
 21 22  1  1
 22 23  1  0
M  END
$$$$
