
     RDKit          3D

 23 24  0  0  0  0  0  0  0  0999 V2000
   -7.4079  -34.7090  -15.4211 C   0  0  2  0  0  0  0  0  0  0  0  0
   -6.5889  -35.7802  -14.7600 C   0  0  1  0  0  0  0  0  0  0  0  0
   -5.3864  -36.1922  -15.5620 C   0  0  2  0  0  0  0  0  0  0  0  0
   -5.8152  -36.3315  -16.9998 C   0  0  1  0  0  0  0  0  0  0  0  0
   -6.4755  -35.0803  -17.5186 C   0  0  1  0  0  0  0  0  0  0  0  0
   -7.5755  -35.4642  -18.4918 C   0  0  0  0  0  0  0  0  0  0  0  0
   -6.1242  -35.3889  -13.4936 O   0  0  0  0  0  0  0  0  0  0  0  0
   -4.9900  -37.4666  -15.1316 O   0  0  0  0  0  0  0  0  0  0  0  0
   -4.6849  -36.6783  -17.7397 O   0  0  0  0  0  0  0  0  0  0  0  0
   -6.8626  -34.2013  -16.5667 O   0  0  0  0  0  0  0  0  0  0  0  0
   -7.8528  -34.4728  -19.4005 O   0  0  0  0  0  0  0  0  0  0  0  0
   -5.4762  -29.1514  -14.0282 O   0  0  0  0  0  0  0  0  0  0  0  0
   -5.8331  -29.1154  -16.3469 C   0  0  0  0  0  0  0  0  0  0  0  0
   -4.9416  -30.0206  -16.8794 O   0  0  0  0  0  0  0  0  0  0  0  0
   -6.3847  -29.5764  -14.9962 C   0  0  1  0  0  0  0  0  0  0  0  0
   -6.5002  -30.9421  -15.0518 O   0  0  0  0  0  0  0  0  0  0  0  0
   -7.7277  -28.9830  -14.7347 C   0  0  1  0  0  0  0  0  0  0  0  0
   -8.1528  -28.0852  -15.6914 O   0  0  0  0  0  0  0  0  0  0  0  0
   -8.6458  -30.1789  -14.6024 C   0  0  2  0  0  0  0  0  0  0  0  0
   -9.5087  -30.0572  -13.5360 O   0  0  0  0  0  0  0  0  0  0  0  0
   -7.6507  -31.3263  -14.4100 C   0  0  1  0  0  0  0  0  0  0  0  0
   -8.2456  -32.5906  -15.0120 C   0  0  0  0  0  0  0  0  0  0  0  0
   -7.5115  -33.6521  -14.5146 O   0  0  0  0  0  0  0  0  0  0  0  0
  1  2  1  0
  1 10  1  0
  1 23  1  1
  2  3  1  0
  2  7  1  1
  3  4  1  0
  3  8  1  1
  5  4  1  0
  4  9  1  6
  5  6  1  1
 10  5  1  0
  6 11  1  0
 15 12  1  1
 13 14  1  0
 15 13  1  0
 16 15  1  0
 17 15  1  0
 21 16  1  0
 17 18  1  6
 19 17  1  0
 19 20  1  1
 21 19  1  0
 21 22  1  6
 22 23  1  0
M  END
$$$$
