
     RDKit          3D

 23 24  0  0  0  0  0  0  0  0999 V2000
   -6.4922  -35.1838  -14.9383 C   0  0  2  0  0  0  0  0  0  0  0  0
   -5.3126  -36.1009  -15.0719 C   0  0  1  0  0  0  0  0  0  0  0  0
   -4.7963  -36.2721  -16.4466 C   0  0  2  0  0  0  0  0  0  0  0  0
   -5.8409  -36.2041  -17.5259 C   0  0  1  0  0  0  0  0  0  0  0  0
   -6.6706  -34.9482  -17.2310 C   0  0  1  0  0  0  0  0  0  0  0  0
   -7.6372  -34.6759  -18.3342 C   0  0  0  0  0  0  0  0  0  0  0  0
   -4.2835  -35.5647  -14.2791 O   0  0  0  0  0  0  0  0  0  0  0  0
   -4.1617  -37.5245  -16.5792 O   0  0  0  0  0  0  0  0  0  0  0  0
   -5.2571  -36.0495  -18.7701 O   0  0  0  0  0  0  0  0  0  0  0  0
   -7.3230  -35.1871  -16.0479 O   0  0  0  0  0  0  0  0  0  0  0  0
   -7.7280  -35.7930  -19.1582 O   0  0  0  0  0  0  0  0  0  0  0  0
   -5.4655  -29.2445  -14.1324 O   0  0  0  0  0  0  0  0  0  0  0  0
   -7.1171  -28.9620  -15.8322 C   0  0  0  0  0  0  0  0  0  0  0  0
   -7.4150  -27.6608  -15.4980 O   0  0  0  0  0  0  0  0  0  0  0  0
   -6.6695  -29.7469  -14.6112 C   0  0  1  0  0  0  0  0  0  0  0  0
   -6.5625  -31.0797  -14.9324 O   0  0  0  0  0  0  0  0  0  0  0  0
   -7.6905  -29.6066  -13.5199 C   0  0  1  0  0  0  0  0  0  0  0  0
   -8.7196  -28.7502  -13.8347 O   0  0  0  0  0  0  0  0  0  0  0  0
   -8.1659  -31.0467  -13.3541 C   0  0  2  0  0  0  0  0  0  0  0  0
   -8.3832  -31.3601  -12.0216 O   0  0  0  0  0  0  0  0  0  0  0  0
   -6.9069  -31.7761  -13.7883 C   0  0  1  0  0  0  0  0  0  0  0  0
   -7.1501  -33.2344  -14.0320 C   0  0  0  0  0  0  0  0  0  0  0  0
   -6.1135  -33.8796  -14.6505 O   0  0  0  0  0  0  0  0  0  0  0  0
  1  2  1  0
  1 10  1  0
  1 23  1  6
  2  3  1  0
  2  7  1  1
  3  4  1  0
  3  8  1  1
  5  4  1  0
  4  9  1  6
  5  6  1  0
  5 10  1  1
  6 11  1  6
 15 12  1  1
 13 14  1  1
 15 13  1  0
 16 15  1  0
 17 15  1  0
 21 16  1  6
 17 18  1  6
 19 17  1  0
 19 20  1  1
 21 19  1  0
 22 21  1  0
 22 23  1  6
M  END
$$$$
