
     RDKit          3D

 23 24  0  0  0  0  0  0  0  0999 V2000
   -7.3733  -32.2498  -14.2005 C   0  0  2  0  0  0  0  0  0  0  0  0
   -8.1000  -31.0036  -13.7832 C   0  0  1  0  0  0  0  0  0  0  0  0
   -7.1900  -29.8279  -13.5623 C   0  0  2  0  0  0  0  0  0  0  0  0
   -5.9896  -30.3111  -12.7904 C   0  0  1  0  0  0  0  0  0  0  0  0
   -5.3080  -31.4711  -13.4690 C   0  0  1  0  0  0  0  0  0  0  0  0
   -4.7645  -32.4169  -12.4133 C   0  0  0  0  0  0  0  0  0  0  0  0
   -9.0618  -30.6076  -14.7272 O   0  0  0  0  0  0  0  0  0  0  0  0
   -7.8570  -28.9076  -12.7409 O   0  0  0  0  0  0  0  0  0  0  0  0
   -5.1359  -29.2210  -12.6228 O   0  0  0  0  0  0  0  0  0  0  0  0
   -6.0374  -32.0790  -14.4320 O   0  0  0  0  0  0  0  0  0  0  0  0
   -5.2084  -33.7063  -12.5739 O   0  0  0  0  0  0  0  0  0  0  0  0
   -6.4367  -34.1365  -19.8013 O   0  0  0  0  0  0  0  0  0  0  0  0
   -4.6706  -34.8429  -18.4276 C   0  0  0  0  0  0  0  0  0  0  0  0
   -4.0259  -33.6256  -18.4434 O   0  0  0  0  0  0  0  0  0  0  0  0
   -6.1886  -34.6925  -18.5474 C   0  0  1  0  0  0  0  0  0  0  0  0
   -6.5968  -33.8827  -17.5182 O   0  0  0  0  0  0  0  0  0  0  0  0
   -6.8695  -36.0140  -18.4284 C   0  0  1  0  0  0  0  0  0  0  0  0
   -6.0144  -37.0918  -18.3332 O   0  0  0  0  0  0  0  0  0  0  0  0
   -7.7649  -35.8658  -17.2172 C   0  0  2  0  0  0  0  0  0  0  0  0
   -9.0241  -36.3792  -17.4350 O   0  0  0  0  0  0  0  0  0  0  0  0
   -7.7879  -34.3478  -17.0204 C   0  0  1  0  0  0  0  0  0  0  0  0
   -7.9404  -34.0533  -15.5355 C   0  0  0  0  0  0  0  0  0  0  0  0
   -7.9446  -32.6768  -15.4007 O   0  0  0  0  0  0  0  0  0  0  0  0
  1  2  1  0
  1 10  1  0
  1 23  1  6
  2  3  1  0
  2  7  1  6
  3  4  1  0
  3  8  1  1
  5  4  1  0
  4  9  1  6
  5  6  1  1
 10  5  1  0
  6 11  1  0
 15 12  1  6
 13 14  1  0
 15 13  1  0
 16 15  1  0
 17 15  1  0
 21 16  1  0
 17 18  1  1
 19 17  1  0
 19 20  1  6
 21 19  1  0
 21 22  1  1
 22 23  1  0
M  END
$$$$
