
     RDKit          3D

 32 36  0  0  0  0  0  0  0  0999 V2000
   -3.1797    2.0611   13.9565 O   0  0  0  0  0  0  0  0  0  0  0  0
   -3.6597    0.7475   13.9266 C   0  0  2  0  0  0  0  0  0  0  0  0
   -2.4655   -0.1694   14.1064 C   0  0  0  0  0  0  0  0  0  0  0  0
   -2.5626   -1.5105   13.9569 C   0  0  0  0  0  0  0  0  0  0  0  0
   -1.4116   -2.2574   14.1344 C   0  0  0  0  0  0  0  0  0  0  0  0
   -0.2333   -1.6818   14.4449 N   0  0  0  0  0  0  0  0  0  0  0  0
   -0.1077   -0.3497   14.6001 C   0  0  0  0  0  0  0  0  0  0  0  0
   -1.2685    0.4092   14.4216 C   0  0  0  0  0  0  0  0  0  0  0  0
   -4.1898    0.5112   12.5648 C   0  0  0  0  0  0  0  0  0  0  0  0
   -3.3044    0.6393   11.5190 N   0  0  0  0  0  0  0  0  0  0  0  0
   -3.9598    0.3398   10.4101 C   0  0  0  0  0  0  0  0  0  0  0  0
   -5.2479    0.0282   10.7613 C   0  0  0  0  0  0  0  0  0  0  0  0
   -5.3846    0.1441   12.1371 N   0  0  0  0  0  0  0  0  0  0  0  0
   -6.6481   -0.0765   12.8104 C   0  0  0  0  0  0  0  0  0  0  0  0
   -6.7480   -1.2314   13.6808 C   0  0  0  0  0  0  0  0  0  0  0  0
   -6.6390   -2.5204   13.2417 C   0  0  0  0  0  0  0  0  0  0  0  0
   -6.5519   -2.9304   11.8541 C   0  0  0  0  0  0  0  0  0  0  0  0
   -6.6731   -3.5955   14.1600 C   0  0  0  0  0  0  0  0  0  0  0  0
   -6.8166   -3.3997   15.5050 C   0  0  0  0  0  0  0  0  0  0  0  0
   -6.8959   -1.0712   15.0642 C   0  0  0  0  0  0  0  0  0  0  0  0
   -6.9285   -2.1293   15.9547 C   0  0  0  0  0  0  0  0  0  0  0  0
   -7.0765   -1.9167   17.4234 C   0  0  0  0  0  0  0  0  0  0  0  0
   -6.0955   -0.3438    9.7442 C   0  0  0  0  0  0  0  0  0  0  0  0
   -5.7038   -0.4109    8.4066 C   0  0  0  0  0  0  0  0  0  0  0  0
   -4.3944   -0.0808    8.1285 C   0  0  0  0  0  0  0  0  0  0  0  0
   -3.5177    0.2911    9.0940 C   0  0  0  0  0  0  0  0  0  0  0  0
   -6.6259   -0.8222    7.3634 C   0  0  0  0  0  0  0  0  0  0  0  0
   -7.9858   -0.9574    7.4867 C   0  0  0  0  0  0  0  0  0  0  0  0
   -8.4878   -1.3508    6.2939 N   0  0  0  0  0  0  0  0  0  0  0  0
   -9.8770   -1.6014    6.0043 C   0  0  0  0  0  0  0  0  0  0  0  0
   -7.4961   -1.4653    5.4358 N   0  0  0  0  0  0  0  0  0  0  0  0
   -6.3279   -1.1444    6.0664 C   0  0  0  0  0  0  0  0  0  0  0  0
  2  1  1  6
  2  3  1  0
  2  9  1  0
  3  4  2  0
  3  8  1  0
  4  5  1  0
  5  6  2  0
  6  7  1  0
  7  8  2  0
  9 10  2  0
  9 13  1  0
 10 11  1  0
 11 12  2  0
 11 26  1  0
 12 13  1  0
 12 23  1  0
 14 13  1  1
 14 15  1  0
 15 16  2  0
 15 20  1  0
 17 16  1  6
 16 18  1  0
 18 19  2  0
 19 21  1  0
 20 21  2  0
 22 21  1  6
 23 24  2  0
 24 25  1  0
 24 27  1  0
 25 26  2  0
 27 28  2  0
 27 32  1  0
 28 29  1  0
 30 29  1  6
 29 31  1  0
 31 32  2  0
M  END
$$$$
