
     RDKit          3D

 32 36  0  0  0  0  0  0  0  0999 V2000
   -2.7427   -0.9772   14.5912 O   0  0  0  0  0  0  0  0  0  0  0  0
   -3.2564   -1.2660   13.3260 C   0  0  2  0  0  0  0  0  0  0  0  0
   -2.5430   -0.3711   12.3155 C   0  0  0  0  0  0  0  0  0  0  0  0
   -2.3065    0.9508   12.6062 C   0  0  0  0  0  0  0  0  0  0  0  0
   -1.6619    1.7146   11.6289 C   0  0  0  0  0  0  0  0  0  0  0  0
   -1.2778    1.2030   10.4419 N   0  0  0  0  0  0  0  0  0  0  0  0
   -1.5071   -0.0864   10.1526 C   0  0  0  0  0  0  0  0  0  0  0  0
   -2.1465   -0.8740   11.1066 C   0  0  0  0  0  0  0  0  0  0  0  0
   -4.6957   -0.9420   13.3249 C   0  0  0  0  0  0  0  0  0  0  0  0
   -5.3879   -0.5817   12.2005 N   0  0  0  0  0  0  0  0  0  0  0  0
   -6.6649   -0.3925   12.5015 C   0  0  0  0  0  0  0  0  0  0  0  0
   -6.8089   -0.6281   13.8249 C   0  0  0  0  0  0  0  0  0  0  0  0
   -5.5630   -0.9664   14.3210 N   0  0  0  0  0  0  0  0  0  0  0  0
   -5.4551   -1.2674   15.7403 C   0  0  0  0  0  0  0  0  0  0  0  0
   -6.1914   -2.5007   16.0809 C   0  0  0  0  0  0  0  0  0  0  0  0
   -5.7081   -3.7464   15.7745 C   0  0  0  0  0  0  0  0  0  0  0  0
   -4.5328   -3.9842   14.9020 C   0  0  0  0  0  0  0  0  0  0  0  0
   -6.4294   -4.8624   16.2299 C   0  0  0  0  0  0  0  0  0  0  0  0
   -7.5825   -4.7232   16.9551 C   0  0  0  0  0  0  0  0  0  0  0  0
   -7.3843   -2.3806   16.8280 C   0  0  0  0  0  0  0  0  0  0  0  0
   -8.0882   -3.4815   17.2708 C   0  0  0  0  0  0  0  0  0  0  0  0
   -9.3468   -3.3530   18.0651 C   0  0  0  0  0  0  0  0  0  0  0  0
   -8.0636   -0.5342   14.3931 C   0  0  0  0  0  0  0  0  0  0  0  0
   -9.2094   -0.1997   13.6714 C   0  0  0  0  0  0  0  0  0  0  0  0
   -9.0528    0.0426   12.3266 C   0  0  0  0  0  0  0  0  0  0  0  0
   -7.7840   -0.0552   11.7498 C   0  0  0  0  0  0  0  0  0  0  0  0
  -10.5110   -0.1242   14.3242 C   0  0  0  0  0  0  0  0  0  0  0  0
  -11.7377    0.2187   13.7869 C   0  0  0  0  0  0  0  0  0  0  0  0
  -12.6836    0.1502   14.7626 N   0  0  0  0  0  0  0  0  0  0  0  0
  -14.1200    0.4238   14.6444 C   0  0  0  0  0  0  0  0  0  0  0  0
  -12.0629   -0.2199   15.8585 N   0  0  0  0  0  0  0  0  0  0  0  0
  -10.7531   -0.3995   15.6527 C   0  0  0  0  0  0  0  0  0  0  0  0
  2  1  1  1
  2  3  1  0
  2  9  1  0
  3  4  2  0
  3  8  1  0
  4  5  1  0
  5  6  2  0
  6  7  1  0
  7  8  2  0
  9 10  2  0
  9 13  1  0
 10 11  1  0
 11 12  2  0
 11 26  1  0
 12 13  1  0
 12 23  1  0
 13 14  1  0
 14 15  1  0
 15 16  2  0
 15 20  1  0
 16 17  1  0
 16 18  1  0
 18 19  2  0
 19 21  1  0
 20 21  2  0
 21 22  1  0
 23 24  2  0
 24 25  1  0
 24 27  1  0
 25 26  2  0
 27 28  2  0
 27 32  1  0
 28 29  1  0
 29 30  1  0
 29 31  1  0
 31 32  2  0
M  END
$$$$
