
     RDKit          3D

 32 36  0  0  0  0  0  0  0  0999 V2000
  -12.0012   -0.8638   16.5364 O   0  0  0  0  0  0  0  0  0  0  0  0
  -10.9593   -0.1029   16.0040 C   0  0  2  0  0  0  0  0  0  0  0  0
  -11.4023    0.4035   14.6335 C   0  0  0  0  0  0  0  0  0  0  0  0
  -12.7187    0.3080   14.2517 C   0  0  0  0  0  0  0  0  0  0  0  0
  -13.0503    0.7782   12.9778 C   0  0  0  0  0  0  0  0  0  0  0  0
  -12.1381    1.3071   12.1373 N   0  0  0  0  0  0  0  0  0  0  0  0
  -10.8516    1.4019   12.5045 C   0  0  0  0  0  0  0  0  0  0  0  0
  -10.4899    0.9430   13.7686 C   0  0  0  0  0  0  0  0  0  0  0  0
   -9.7838   -0.9787   15.8372 C   0  0  0  0  0  0  0  0  0  0  0  0
   -9.6725   -1.9122   14.8425 N   0  0  0  0  0  0  0  0  0  0  0  0
   -8.4942   -2.5143   14.9225 C   0  0  0  0  0  0  0  0  0  0  0  0
   -7.8337   -1.9752   15.9717 C   0  0  0  0  0  0  0  0  0  0  0  0
   -8.6611   -1.0191   16.5321 N   0  0  0  0  0  0  0  0  0  0  0  0
   -8.1703   -0.2906   17.6919 C   0  0  0  0  0  0  0  0  0  0  0  0
   -8.7202   -0.8481   18.9432 C   0  0  0  0  0  0  0  0  0  0  0  0
   -8.0121   -0.8422   20.1170 C   0  0  0  0  0  0  0  0  0  0  0  0
   -6.5765   -0.4834   20.2132 C   0  0  0  0  0  0  0  0  0  0  0  0
   -8.6576   -1.3010   21.2772 C   0  0  0  0  0  0  0  0  0  0  0  0
   -9.9522   -1.7461   21.2486 C   0  0  0  0  0  0  0  0  0  0  0  0
  -10.0538   -1.3140   18.9365 C   0  0  0  0  0  0  0  0  0  0  0  0
  -10.6808   -1.7645   20.0799 C   0  0  0  0  0  0  0  0  0  0  0  0
  -12.0928   -2.2522   20.0722 C   0  0  0  0  0  0  0  0  0  0  0  0
   -6.5529   -2.4061   16.2545 C   0  0  0  0  0  0  0  0  0  0  0  0
   -5.8915   -3.3849   15.5129 C   0  0  0  0  0  0  0  0  0  0  0  0
   -6.5729   -3.9310   14.4502 C   0  0  0  0  0  0  0  0  0  0  0  0
   -7.8678   -3.4934   14.1609 C   0  0  0  0  0  0  0  0  0  0  0  0
   -4.5342   -3.7942   15.8537 C   0  0  0  0  0  0  0  0  0  0  0  0
   -3.3627   -3.0624   15.7989 C   0  0  0  0  0  0  0  0  0  0  0  0
   -2.3310   -3.8457   16.2151 N   0  0  0  0  0  0  0  0  0  0  0  0
   -0.9136   -3.4838   16.3248 C   0  0  0  0  0  0  0  0  0  0  0  0
   -2.8473   -5.0151   16.5139 N   0  0  0  0  0  0  0  0  0  0  0  0
   -4.1704   -5.0407   16.3154 C   0  0  0  0  0  0  0  0  0  0  0  0
  2  1  1  6
  2  3  1  0
  2  9  1  0
  3  4  2  0
  3  8  1  0
  4  5  1  0
  5  6  2  0
  6  7  1  0
  7  8  2  0
  9 10  2  0
  9 13  1  0
 10 11  1  0
 11 12  2  0
 11 26  1  0
 12 13  1  0
 12 23  1  0
 13 14  1  0
 14 15  1  0
 15 16  2  0
 15 20  1  0
 16 17  1  0
 16 18  1  0
 18 19  2  0
 19 21  1  0
 20 21  2  0
 21 22  1  0
 23 24  2  0
 24 25  1  0
 24 27  1  0
 25 26  2  0
 27 28  2  0
 27 32  1  0
 28 29  1  0
 29 30  1  0
 29 31  1  0
 31 32  2  0
M  END
$$$$
