
     RDKit          3D

 32 36  0  0  0  0  0  0  0  0999 V2000
   -5.9818   -1.7409   18.1827 O   0  0  0  0  0  0  0  0  0  0  0  0
   -6.8704   -2.2336   17.2212 C   0  0  2  0  0  0  0  0  0  0  0  0
   -6.6629   -3.7338   17.1472 C   0  0  0  0  0  0  0  0  0  0  0  0
   -7.3790   -4.5159   16.3070 C   0  0  0  0  0  0  0  0  0  0  0  0
   -7.1069   -5.8723   16.3102 C   0  0  0  0  0  0  0  0  0  0  0  0
   -6.1670   -6.4055   17.1156 N   0  0  0  0  0  0  0  0  0  0  0  0
   -5.4398   -5.6510   17.9619 C   0  0  0  0  0  0  0  0  0  0  0  0
   -5.7114   -4.2793   17.9620 C   0  0  0  0  0  0  0  0  0  0  0  0
   -6.4530   -1.6708   15.9172 C   0  0  0  0  0  0  0  0  0  0  0  0
   -5.1349   -1.2954   15.7921 N   0  0  0  0  0  0  0  0  0  0  0  0
   -4.9625   -0.8728   14.5509 C   0  0  0  0  0  0  0  0  0  0  0  0
   -6.1669   -0.9819   13.9050 C   0  0  0  0  0  0  0  0  0  0  0  0
   -7.1111   -1.4885   14.7863 N   0  0  0  0  0  0  0  0  0  0  0  0
   -8.4976   -1.6759   14.4111 C   0  0  0  0  0  0  0  0  0  0  0  0
   -9.4508   -0.6795   14.8582 C   0  0  0  0  0  0  0  0  0  0  0  0
   -9.9430    0.3097   14.0549 C   0  0  0  0  0  0  0  0  0  0  0  0
   -9.4941    0.5983   12.7072 C   0  0  0  0  0  0  0  0  0  0  0  0
  -10.9271    1.2027   14.5390 C   0  0  0  0  0  0  0  0  0  0  0  0
  -11.4214    1.1215   15.8106 C   0  0  0  0  0  0  0  0  0  0  0  0
   -9.9795   -0.7293   16.1542 C   0  0  0  0  0  0  0  0  0  0  0  0
  -10.9419    0.1491   16.6188 C   0  0  0  0  0  0  0  0  0  0  0  0
  -11.4883    0.0565   18.0034 C   0  0  0  0  0  0  0  0  0  0  0  0
   -6.1954   -0.6160   12.5796 C   0  0  0  0  0  0  0  0  0  0  0  0
   -5.0761   -0.1489   11.8897 C   0  0  0  0  0  0  0  0  0  0  0  0
   -3.9004   -0.0633   12.6046 C   0  0  0  0  0  0  0  0  0  0  0  0
   -3.8178   -0.4126   13.9124 C   0  0  0  0  0  0  0  0  0  0  0  0
   -5.1444    0.2142   10.4856 C   0  0  0  0  0  0  0  0  0  0  0  0
   -5.9499   -0.3604    9.5351 C   0  0  0  0  0  0  0  0  0  0  0  0
   -5.7278    0.2586    8.3532 N   0  0  0  0  0  0  0  0  0  0  0  0
   -6.3784   -0.0482    7.1045 C   0  0  0  0  0  0  0  0  0  0  0  0
   -4.8179    1.1932    8.5309 N   0  0  0  0  0  0  0  0  0  0  0  0
   -4.4352    1.1927    9.8419 C   0  0  0  0  0  0  0  0  0  0  0  0
  2  1  1  1
  2  3  1  0
  2  9  1  0
  3  4  2  0
  3  8  1  0
  4  5  1  0
  5  6  2  0
  6  7  1  0
  7  8  2  0
  9 10  2  0
  9 13  1  0
 10 11  1  0
 11 12  2  0
 11 26  1  0
 12 13  1  0
 12 23  1  0
 14 13  1  1
 14 15  1  0
 15 16  2  0
 15 20  1  0
 17 16  1  6
 16 18  1  0
 18 19  2  0
 19 21  1  0
 20 21  2  0
 22 21  1  6
 23 24  2  0
 24 25  1  0
 24 27  1  0
 25 26  2  0
 27 28  2  0
 27 32  1  0
 28 29  1  0
 30 29  1  6
 29 31  1  0
 31 32  2  0
M  END
$$$$
