
     RDKit          3D

 32 36  0  0  0  0  0  0  0  0999 V2000
   -3.9572   -1.9465   13.2607 O   0  0  0  0  0  0  0  0  0  0  0  0
   -4.9854   -1.0110   13.1361 C   0  0  2  0  0  0  0  0  0  0  0  0
   -4.3502    0.3475   12.8499 C   0  0  0  0  0  0  0  0  0  0  0  0
   -2.9868    0.5034   12.9194 C   0  0  0  0  0  0  0  0  0  0  0  0
   -2.4753    1.7782   12.6596 C   0  0  0  0  0  0  0  0  0  0  0  0
   -3.2624    2.8291   12.3522 N   0  0  0  0  0  0  0  0  0  0  0  0
   -4.5938    2.6826   12.2839 C   0  0  0  0  0  0  0  0  0  0  0  0
   -5.1339    1.4241   12.5365 C   0  0  0  0  0  0  0  0  0  0  0  0
   -5.7092   -0.9437   14.4199 C   0  0  0  0  0  0  0  0  0  0  0  0
   -6.3107    0.1927   14.8891 N   0  0  0  0  0  0  0  0  0  0  0  0
   -6.9140   -0.0625   16.0416 C   0  0  0  0  0  0  0  0  0  0  0  0
   -6.7061   -1.3674   16.3280 C   0  0  0  0  0  0  0  0  0  0  0  0
   -5.9463   -1.8983   15.3016 N   0  0  0  0  0  0  0  0  0  0  0  0
   -5.5844   -3.3053   15.3812 C   0  0  0  0  0  0  0  0  0  0  0  0
   -6.7851   -4.1636   15.4081 C   0  0  0  0  0  0  0  0  0  0  0  0
   -6.7420   -5.4641   15.8395 C   0  0  0  0  0  0  0  0  0  0  0  0
   -5.4851   -6.2010   16.1155 C   0  0  0  0  0  0  0  0  0  0  0  0
   -7.9538   -6.1691   15.9261 C   0  0  0  0  0  0  0  0  0  0  0  0
   -9.1469   -5.5876   15.5895 C   0  0  0  0  0  0  0  0  0  0  0  0
   -8.0268   -3.5847   15.0636 C   0  0  0  0  0  0  0  0  0  0  0  0
   -9.2130   -4.2839   15.1499 C   0  0  0  0  0  0  0  0  0  0  0  0
  -10.5259   -3.6688   14.7901 C   0  0  0  0  0  0  0  0  0  0  0  0
   -7.2659   -1.9035   17.4704 C   0  0  0  0  0  0  0  0  0  0  0  0
   -8.0414   -1.1650   18.3641 C   0  0  0  0  0  0  0  0  0  0  0  0
   -8.2438    0.1627   18.0671 C   0  0  0  0  0  0  0  0  0  0  0  0
   -7.6805    0.7058   16.9095 C   0  0  0  0  0  0  0  0  0  0  0  0
   -8.6147   -1.7878   19.5513 C   0  0  0  0  0  0  0  0  0  0  0  0
   -9.0370   -3.0912   19.7348 C   0  0  0  0  0  0  0  0  0  0  0  0
   -9.5002   -3.2320   21.0065 N   0  0  0  0  0  0  0  0  0  0  0  0
  -10.0401   -4.4405   21.6390 C   0  0  0  0  0  0  0  0  0  0  0  0
   -9.3689   -2.0601   21.5832 N   0  0  0  0  0  0  0  0  0  0  0  0
   -8.8407   -1.1529   20.7535 C   0  0  0  0  0  0  0  0  0  0  0  0
  2  1  1  1
  2  3  1  0
  2  9  1  0
  3  4  2  0
  3  8  1  0
  4  5  1  0
  5  6  2  0
  6  7  1  0
  7  8  2  0
  9 10  2  0
  9 13  1  0
 10 11  1  0
 11 12  2  0
 11 26  1  0
 12 13  1  0
 12 23  1  0
 13 14  1  0
 14 15  1  0
 15 16  2  0
 15 20  1  0
 16 17  1  0
 16 18  1  0
 18 19  2  0
 19 21  1  0
 20 21  2  0
 21 22  1  0
 23 24  2  0
 24 25  1  0
 24 27  1  0
 25 26  2  0
 27 28  2  0
 27 32  1  0
 28 29  1  0
 29 30  1  0
 29 31  1  0
 31 32  2  0
M  END
$$$$
