
     RDKit          3D

 32 36  0  0  0  0  0  0  0  0999 V2000
   -7.3338    0.3883   13.1002 O   0  0  0  0  0  0  0  0  0  0  0  0
   -6.5688    0.1543   14.2438 C   0  0  2  0  0  0  0  0  0  0  0  0
   -5.1298    0.5611   13.9358 C   0  0  0  0  0  0  0  0  0  0  0  0
   -4.1471    0.4027   14.8829 C   0  0  0  0  0  0  0  0  0  0  0  0
   -2.8552    0.8101   14.5377 C   0  0  0  0  0  0  0  0  0  0  0  0
   -2.5568    1.3401   13.3342 N   0  0  0  0  0  0  0  0  0  0  0  0
   -3.5124    1.4978   12.4064 C   0  0  0  0  0  0  0  0  0  0  0  0
   -4.8097    1.1002   12.7199 C   0  0  0  0  0  0  0  0  0  0  0  0
   -6.6081   -1.2904   14.5404 C   0  0  0  0  0  0  0  0  0  0  0  0
   -6.6450   -2.2591   13.5741 N   0  0  0  0  0  0  0  0  0  0  0  0
   -6.6330   -3.4577   14.1402 C   0  0  0  0  0  0  0  0  0  0  0  0
   -6.5895   -3.2736   15.4789 C   0  0  0  0  0  0  0  0  0  0  0  0
   -6.5787   -1.9095   15.7069 N   0  0  0  0  0  0  0  0  0  0  0  0
   -6.5352   -1.4512   17.0870 C   0  0  0  0  0  0  0  0  0  0  0  0
   -7.8054   -0.8068   17.4748 C   0  0  0  0  0  0  0  0  0  0  0  0
   -7.8943    0.0426   18.5471 C   0  0  0  0  0  0  0  0  0  0  0  0
   -6.8088    0.2366   19.5387 C   0  0  0  0  0  0  0  0  0  0  0  0
   -9.1210    0.6874   18.7759 C   0  0  0  0  0  0  0  0  0  0  0  0
  -10.2027    0.4795   17.9623 C   0  0  0  0  0  0  0  0  0  0  0  0
   -8.9346   -1.0084   16.6503 C   0  0  0  0  0  0  0  0  0  0  0  0
  -10.1369   -0.3725   16.8820 C   0  0  0  0  0  0  0  0  0  0  0  0
  -11.3287   -0.5828   16.0063 C   0  0  0  0  0  0  0  0  0  0  0  0
   -6.5323   -4.3755   16.3086 C   0  0  0  0  0  0  0  0  0  0  0  0
   -6.5222   -5.6892   15.8399 C   0  0  0  0  0  0  0  0  0  0  0  0
   -6.5714   -5.8670   14.4769 C   0  0  0  0  0  0  0  0  0  0  0  0
   -6.6260   -4.7526   13.6359 C   0  0  0  0  0  0  0  0  0  0  0  0
   -6.4519   -6.8145   16.7644 C   0  0  0  0  0  0  0  0  0  0  0  0
   -6.1139   -6.8223   18.1048 C   0  0  0  0  0  0  0  0  0  0  0  0
   -6.1863   -8.0981   18.5725 N   0  0  0  0  0  0  0  0  0  0  0  0
   -5.9185   -8.5739   19.9340 C   0  0  0  0  0  0  0  0  0  0  0  0
   -6.5538   -8.8468   17.5588 N   0  0  0  0  0  0  0  0  0  0  0  0
   -6.7282   -8.1263   16.4448 C   0  0  0  0  0  0  0  0  0  0  0  0
  2  1  1  6
  2  3  1  0
  2  9  1  0
  3  4  2  0
  3  8  1  0
  4  5  1  0
  5  6  2  0
  6  7  1  0
  7  8  2  0
  9 10  2  0
  9 13  1  0
 10 11  1  0
 11 12  2  0
 11 26  1  0
 12 13  1  0
 12 23  1  0
 13 14  1  0
 14 15  1  0
 15 16  2  0
 15 20  1  0
 16 17  1  0
 16 18  1  0
 18 19  2  0
 19 21  1  0
 20 21  2  0
 21 22  1  0
 23 24  2  0
 24 25  1  0
 24 27  1  0
 25 26  2  0
 27 28  2  0
 27 32  1  0
 28 29  1  0
 29 30  1  0
 29 31  1  0
 31 32  2  0
M  END
$$$$
