
     RDKit          3D

 32 36  0  0  0  0  0  0  0  0999 V2000
   -4.8238    1.3373   11.5109 O   0  0  0  0  0  0  0  0  0  0  0  0
   -3.6677    1.0541   12.2457 C   0  0  2  0  0  0  0  0  0  0  0  0
   -2.5814    0.6960   11.2504 C   0  0  0  0  0  0  0  0  0  0  0  0
   -2.6764    1.0164    9.9394 C   0  0  0  0  0  0  0  0  0  0  0  0
   -1.6265    0.6516    9.1155 C   0  0  0  0  0  0  0  0  0  0  0  0
   -0.5456    0.0011    9.5897 N   0  0  0  0  0  0  0  0  0  0  0  0
   -0.4247   -0.3307   10.8896 C   0  0  0  0  0  0  0  0  0  0  0  0
   -1.4835    0.0361   11.7261 C   0  0  0  0  0  0  0  0  0  0  0  0
   -3.9478   -0.1621   13.0419 C   0  0  0  0  0  0  0  0  0  0  0  0
   -3.1611   -0.3778   14.1504 N   0  0  0  0  0  0  0  0  0  0  0  0
   -3.6051   -1.4750   14.7401 C   0  0  0  0  0  0  0  0  0  0  0  0
   -4.6620   -1.9430   14.0028 C   0  0  0  0  0  0  0  0  0  0  0  0
   -4.8697   -1.1003   12.9204 N   0  0  0  0  0  0  0  0  0  0  0  0
   -5.8914   -1.3559   11.9258 C   0  0  0  0  0  0  0  0  0  0  0  0
   -7.2278   -0.8658   12.2003 C   0  0  0  0  0  0  0  0  0  0  0  0
   -8.0088   -0.2396   11.2708 C   0  0  0  0  0  0  0  0  0  0  0  0
   -7.5827    0.1509    9.9416 C   0  0  0  0  0  0  0  0  0  0  0  0
   -9.3317    0.1461   11.5893 C   0  0  0  0  0  0  0  0  0  0  0  0
   -9.8805   -0.0828   12.8199 C   0  0  0  0  0  0  0  0  0  0  0  0
   -7.8237   -1.0807   13.4494 C   0  0  0  0  0  0  0  0  0  0  0  0
   -9.1187   -0.6994   13.7516 C   0  0  0  0  0  0  0  0  0  0  0  0
   -9.7216   -0.9561   15.0913 C   0  0  0  0  0  0  0  0  0  0  0  0
   -5.2907   -3.0740   14.4685 C   0  0  0  0  0  0  0  0  0  0  0  0
   -4.9013   -3.7442   15.6289 C   0  0  0  0  0  0  0  0  0  0  0  0
   -3.8289   -3.2173   16.3167 C   0  0  0  0  0  0  0  0  0  0  0  0
   -3.1750   -2.1041   15.9016 C   0  0  0  0  0  0  0  0  0  0  0  0
   -5.6006   -4.9280   16.0950 C   0  0  0  0  0  0  0  0  0  0  0  0
   -5.0376   -6.0120   16.7200 C   0  0  0  0  0  0  0  0  0  0  0  0
   -6.0172   -6.9006   17.0033 N   0  0  0  0  0  0  0  0  0  0  0  0
   -5.8404   -8.1702   17.6617 C   0  0  0  0  0  0  0  0  0  0  0  0
   -7.1645   -6.4131   16.5800 N   0  0  0  0  0  0  0  0  0  0  0  0
   -6.9417   -5.1911   16.0122 C   0  0  0  0  0  0  0  0  0  0  0  0
  2  1  1  6
  2  3  1  0
  2  9  1  0
  3  4  2  0
  3  8  1  0
  4  5  1  0
  5  6  2  0
  6  7  1  0
  7  8  2  0
  9 10  2  0
  9 13  1  0
 10 11  1  0
 11 12  2  0
 11 26  1  0
 12 13  1  0
 12 23  1  0
 14 13  1  1
 14 15  1  0
 15 16  2  0
 15 20  1  0
 17 16  1  6
 16 18  1  0
 18 19  2  0
 19 21  1  0
 20 21  2  0
 22 21  1  6
 23 24  2  0
 24 25  1  0
 24 27  1  0
 25 26  2  0
 27 28  2  0
 27 32  1  0
 28 29  1  0
 30 29  1  6
 29 31  1  0
 31 32  2  0
M  END
$$$$
