
     RDKit          3D

 32 36  0  0  0  0  0  0  0  0999 V2000
   -7.8749   -1.8192    9.7419 O   0  0  0  0  0  0  0  0  0  0  0  0
   -7.4769   -0.5768    9.2369 C   0  0  2  0  0  0  0  0  0  0  0  0
   -7.7739   -0.5821    7.7501 C   0  0  0  0  0  0  0  0  0  0  0  0
   -8.6210   -1.4769    7.1915 C   0  0  0  0  0  0  0  0  0  0  0  0
   -8.8305   -1.3915    5.8266 C   0  0  0  0  0  0  0  0  0  0  0  0
   -8.2191   -0.4570    5.0722 N   0  0  0  0  0  0  0  0  0  0  0  0
   -7.3709    0.4457    5.6014 C   0  0  0  0  0  0  0  0  0  0  0  0
   -7.1562    0.3631    6.9807 C   0  0  0  0  0  0  0  0  0  0  0  0
   -6.0062   -0.4993    9.3876 C   0  0  0  0  0  0  0  0  0  0  0  0
   -5.2455   -0.9853    8.3488 N   0  0  0  0  0  0  0  0  0  0  0  0
   -3.9771   -0.7762    8.6589 C   0  0  0  0  0  0  0  0  0  0  0  0
   -3.9458   -0.1647    9.8856 C   0  0  0  0  0  0  0  0  0  0  0  0
   -5.2448    0.0040   10.3426 N   0  0  0  0  0  0  0  0  0  0  0  0
   -5.5405    0.5826   11.6373 C   0  0  0  0  0  0  0  0  0  0  0  0
   -6.3956   -0.1765   12.5283 C   0  0  0  0  0  0  0  0  0  0  0  0
   -5.9868   -1.2954   13.1969 C   0  0  0  0  0  0  0  0  0  0  0  0
   -4.7137   -1.9640   13.0154 C   0  0  0  0  0  0  0  0  0  0  0  0
   -6.8539   -1.9428   14.1075 C   0  0  0  0  0  0  0  0  0  0  0  0
   -8.1193   -1.4896   14.3554 C   0  0  0  0  0  0  0  0  0  0  0  0
   -7.6984    0.2559   12.8066 C   0  0  0  0  0  0  0  0  0  0  0  0
   -8.5394   -0.3845   13.6991 C   0  0  0  0  0  0  0  0  0  0  0  0
   -9.9173    0.1138   13.9768 C   0  0  0  0  0  0  0  0  0  0  0  0
   -2.7070    0.1680   10.3814 C   0  0  0  0  0  0  0  0  0  0  0  0
   -1.5156   -0.0893    9.7020 C   0  0  0  0  0  0  0  0  0  0  0  0
   -1.6248   -0.7092    8.4754 C   0  0  0  0  0  0  0  0  0  0  0  0
   -2.8216   -1.0569    7.9407 C   0  0  0  0  0  0  0  0  0  0  0  0
   -0.2276    0.2907   10.2538 C   0  0  0  0  0  0  0  0  0  0  0  0
    1.0034   -0.0105    9.7279 C   0  0  0  0  0  0  0  0  0  0  0  0
    1.9542    0.5257   10.5267 N   0  0  0  0  0  0  0  0  0  0  0  0
    3.3777    0.4371   10.3208 C   0  0  0  0  0  0  0  0  0  0  0  0
    1.3643    1.1469   11.5263 N   0  0  0  0  0  0  0  0  0  0  0  0
    0.0115    1.0209   11.3871 C   0  0  0  0  0  0  0  0  0  0  0  0
  2  1  1  6
  2  3  1  0
  2  9  1  0
  3  4  2  0
  3  8  1  0
  4  5  1  0
  5  6  2  0
  6  7  1  0
  7  8  2  0
  9 10  2  0
  9 13  1  0
 10 11  1  0
 11 12  2  0
 11 26  1  0
 12 13  1  0
 12 23  1  0
 14 13  1  1
 14 15  1  0
 15 16  2  0
 15 20  1  0
 17 16  1  6
 16 18  1  0
 18 19  2  0
 19 21  1  0
 20 21  2  0
 22 21  1  6
 23 24  2  0
 24 25  1  0
 24 27  1  0
 25 26  2  0
 27 28  2  0
 27 32  1  0
 28 29  1  0
 30 29  1  6
 29 31  1  0
 31 32  2  0
M  END
$$$$
