
     RDKit          3D

 32 36  0  0  0  0  0  0  0  0999 V2000
    0.2131    1.9433    9.4202 O   0  0  0  0  0  0  0  0  0  0  0  0
   -0.4019    0.9667   10.2107 C   0  0  2  0  0  0  0  0  0  0  0  0
    0.4255   -0.2977   10.0841 C   0  0  0  0  0  0  0  0  0  0  0  0
    1.6779   -0.2866    9.5726 C   0  0  0  0  0  0  0  0  0  0  0  0
    2.3517   -1.4932    9.5083 C   0  0  0  0  0  0  0  0  0  0  0  0
    1.7916   -2.6421    9.9356 N   0  0  0  0  0  0  0  0  0  0  0  0
    0.5469   -2.6826   10.4488 C   0  0  0  0  0  0  0  0  0  0  0  0
   -0.1380   -1.4653   10.5157 C   0  0  0  0  0  0  0  0  0  0  0  0
   -1.7224    0.6863    9.6031 C   0  0  0  0  0  0  0  0  0  0  0  0
   -1.7253    0.1337    8.3427 N   0  0  0  0  0  0  0  0  0  0  0  0
   -2.9871   -0.0818    8.0108 C   0  0  0  0  0  0  0  0  0  0  0  0
   -3.7680    0.3357    9.0575 C   0  0  0  0  0  0  0  0  0  0  0  0
   -2.9517    0.8269   10.0660 N   0  0  0  0  0  0  0  0  0  0  0  0
   -3.4863    1.3874   11.2901 C   0  0  0  0  0  0  0  0  0  0  0  0
   -3.8113    0.4654   12.3604 C   0  0  0  0  0  0  0  0  0  0  0  0
   -3.8229    0.8144   13.6811 C   0  0  0  0  0  0  0  0  0  0  0  0
   -3.3850    2.0880   14.2171 C   0  0  0  0  0  0  0  0  0  0  0  0
   -4.2220   -0.1193   14.6655 C   0  0  0  0  0  0  0  0  0  0  0  0
   -4.6055   -1.3923   14.3484 C   0  0  0  0  0  0  0  0  0  0  0  0
   -4.2081   -0.8471   12.0752 C   0  0  0  0  0  0  0  0  0  0  0  0
   -4.5966   -1.7535   13.0453 C   0  0  0  0  0  0  0  0  0  0  0  0
   -5.0233   -3.1402   12.7000 C   0  0  0  0  0  0  0  0  0  0  0  0
   -5.1265    0.1697    8.9227 C   0  0  0  0  0  0  0  0  0  0  0  0
   -5.7214   -0.3895    7.7910 C   0  0  0  0  0  0  0  0  0  0  0  0
   -4.8736   -0.7836    6.7778 C   0  0  0  0  0  0  0  0  0  0  0  0
   -3.5272   -0.6436    6.8607 C   0  0  0  0  0  0  0  0  0  0  0  0
   -7.1598   -0.5605    7.6932 C   0  0  0  0  0  0  0  0  0  0  0  0
   -8.1132    0.1804    8.3451 C   0  0  0  0  0  0  0  0  0  0  0  0
   -9.3335   -0.2806    7.9874 N   0  0  0  0  0  0  0  0  0  0  0  0
  -10.5981    0.2317    8.4508 C   0  0  0  0  0  0  0  0  0  0  0  0
   -9.1768   -1.2766    7.1409 N   0  0  0  0  0  0  0  0  0  0  0  0
   -7.8412   -1.4758    6.9366 C   0  0  0  0  0  0  0  0  0  0  0  0
  2  1  1  6
  2  3  1  0
  2  9  1  0
  3  4  2  0
  3  8  1  0
  4  5  1  0
  5  6  2  0
  6  7  1  0
  7  8  2  0
  9 10  2  0
  9 13  1  0
 10 11  1  0
 11 12  2  0
 11 26  1  0
 12 13  1  0
 12 23  1  0
 14 13  1  1
 14 15  1  0
 15 16  2  0
 15 20  1  0
 17 16  1  6
 16 18  1  0
 18 19  2  0
 19 21  1  0
 20 21  2  0
 22 21  1  6
 23 24  2  0
 24 25  1  0
 24 27  1  0
 25 26  2  0
 27 28  2  0
 27 32  1  0
 28 29  1  0
 30 29  1  6
 29 31  1  0
 31 32  2  0
M  END
$$$$
