
     RDKit          3D

 32 36  0  0  0  0  0  0  0  0999 V2000
   -7.5374    0.7247   15.8678 O   0  0  0  0  0  0  0  0  0  0  0  0
   -7.9177   -0.5707   16.2343 C   0  0  2  0  0  0  0  0  0  0  0  0
   -7.8653   -1.4237   14.9819 C   0  0  0  0  0  0  0  0  0  0  0  0
   -8.2579   -2.7184   14.9794 C   0  0  0  0  0  0  0  0  0  0  0  0
   -8.1785   -3.4071   13.7822 C   0  0  0  0  0  0  0  0  0  0  0  0
   -7.7282   -2.8210   12.6552 N   0  0  0  0  0  0  0  0  0  0  0  0
   -7.3306   -1.5343   12.6287 C   0  0  0  0  0  0  0  0  0  0  0  0
   -7.4092   -0.8343   13.8367 C   0  0  0  0  0  0  0  0  0  0  0  0
   -9.3350   -0.5026   16.6565 C   0  0  0  0  0  0  0  0  0  0  0  0
  -10.2068    0.1495   15.8147 N   0  0  0  0  0  0  0  0  0  0  0  0
  -11.4137    0.0518   16.3463 C   0  0  0  0  0  0  0  0  0  0  0  0
  -11.2960   -0.6558   17.5147 C   0  0  0  0  0  0  0  0  0  0  0  0
   -9.9658   -1.0014   17.7046 N   0  0  0  0  0  0  0  0  0  0  0  0
   -9.5127   -1.7174   18.8795 C   0  0  0  0  0  0  0  0  0  0  0  0
   -9.4578   -3.1637   18.8001 C   0  0  0  0  0  0  0  0  0  0  0  0
   -8.2928   -3.8772   18.8029 C   0  0  0  0  0  0  0  0  0  0  0  0
   -6.9604   -3.3097   18.7426 C   0  0  0  0  0  0  0  0  0  0  0  0
   -8.3186   -5.2912   18.7974 C   0  0  0  0  0  0  0  0  0  0  0  0
   -9.4884   -5.9980   18.7867 C   0  0  0  0  0  0  0  0  0  0  0  0
  -10.6350   -3.9224   18.7868 C   0  0  0  0  0  0  0  0  0  0  0  0
  -10.6500   -5.3057   18.7812 C   0  0  0  0  0  0  0  0  0  0  0  0
  -11.9257   -6.0782   18.7780 C   0  0  0  0  0  0  0  0  0  0  0  0
  -12.4554   -0.8950   18.2146 C   0  0  0  0  0  0  0  0  0  0  0  0
  -13.7100   -0.4541   17.7921 C   0  0  0  0  0  0  0  0  0  0  0  0
  -13.7507    0.2535   16.6095 C   0  0  0  0  0  0  0  0  0  0  0  0
  -12.6377    0.5154   15.8804 C   0  0  0  0  0  0  0  0  0  0  0  0
  -14.9130   -0.7396   18.5531 C   0  0  0  0  0  0  0  0  0  0  0  0
  -14.9927   -1.4963   19.6949 C   0  0  0  0  0  0  0  0  0  0  0  0
  -16.2813   -1.5194   20.1053 N   0  0  0  0  0  0  0  0  0  0  0  0
  -16.7841   -2.2043   21.2692 C   0  0  0  0  0  0  0  0  0  0  0  0
  -17.0044   -0.8087   19.2656 N   0  0  0  0  0  0  0  0  0  0  0  0
  -16.1867   -0.3108   18.2915 C   0  0  0  0  0  0  0  0  0  0  0  0
  2  1  1  6
  2  3  1  0
  2  9  1  0
  3  4  2  0
  3  8  1  0
  4  5  1  0
  5  6  2  0
  6  7  1  0
  7  8  2  0
  9 10  2  0
  9 13  1  0
 10 11  1  0
 11 12  2  0
 11 26  1  0
 12 13  1  0
 12 23  1  0
 14 13  1  1
 14 15  1  0
 15 16  2  0
 15 20  1  0
 17 16  1  6
 16 18  1  0
 18 19  2  0
 19 21  1  0
 20 21  2  0
 22 21  1  6
 23 24  2  0
 24 25  1  0
 24 27  1  0
 25 26  2  0
 27 28  2  0
 27 32  1  0
 28 29  1  0
 30 29  1  6
 29 31  1  0
 31 32  2  0
M  END
$$$$
