
     RDKit          3D

 32 36  0  0  0  0  0  0  0  0999 V2000
   -4.8495   -1.8111   15.8818 O   0  0  0  0  0  0  0  0  0  0  0  0
   -6.1777   -2.0947   15.5466 C   0  0  2  0  0  0  0  0  0  0  0  0
   -6.5307   -1.2340   14.3494 C   0  0  0  0  0  0  0  0  0  0  0  0
   -6.5310   -1.7249   13.0887 C   0  0  0  0  0  0  0  0  0  0  0  0
   -6.8763   -0.8587   12.0666 C   0  0  0  0  0  0  0  0  0  0  0  0
   -7.2011    0.4272   12.3058 N   0  0  0  0  0  0  0  0  0  0  0  0
   -7.2087    0.9426   13.5502 C   0  0  0  0  0  0  0  0  0  0  0  0
   -6.8605    0.0707   14.5865 C   0  0  0  0  0  0  0  0  0  0  0  0
   -7.0168   -1.6355   16.6764 C   0  0  0  0  0  0  0  0  0  0  0  0
   -6.4534   -0.7282   17.5444 N   0  0  0  0  0  0  0  0  0  0  0  0
   -7.3758   -0.4143   18.4385 C   0  0  0  0  0  0  0  0  0  0  0  0
   -8.5085   -1.1233   18.1317 C   0  0  0  0  0  0  0  0  0  0  0  0
   -8.2675   -1.9013   17.0085 N   0  0  0  0  0  0  0  0  0  0  0  0
   -9.2625   -2.8017   16.4631 C   0  0  0  0  0  0  0  0  0  0  0  0
   -8.9546   -4.2183   16.4670 C   0  0  0  0  0  0  0  0  0  0  0  0
   -8.7686   -4.9481   17.6067 C   0  0  0  0  0  0  0  0  0  0  0  0
   -8.7096   -4.4071   18.9501 C   0  0  0  0  0  0  0  0  0  0  0  0
   -8.5441   -6.3427   17.5359 C   0  0  0  0  0  0  0  0  0  0  0  0
   -8.5008   -7.0135   16.3459 C   0  0  0  0  0  0  0  0  0  0  0  0
   -8.9010   -4.9398   15.2678 C   0  0  0  0  0  0  0  0  0  0  0  0
   -8.6804   -6.3042   15.2087 C   0  0  0  0  0  0  0  0  0  0  0  0
   -8.6413   -7.0388   13.9114 C   0  0  0  0  0  0  0  0  0  0  0  0
   -9.6065   -0.9156   18.9333 C   0  0  0  0  0  0  0  0  0  0  0  0
   -9.6083   -0.0370   20.0174 C   0  0  0  0  0  0  0  0  0  0  0  0
   -8.4330    0.6391   20.2672 C   0  0  0  0  0  0  0  0  0  0  0  0
   -7.3225    0.4719   19.5070 C   0  0  0  0  0  0  0  0  0  0  0  0
  -10.7935    0.1648   20.8313 C   0  0  0  0  0  0  0  0  0  0  0  0
  -12.0232   -0.4109   20.6343 C   0  0  0  0  0  0  0  0  0  0  0  0
  -12.8598    0.0210   21.6055 N   0  0  0  0  0  0  0  0  0  0  0  0
  -14.2433   -0.3532   21.7555 C   0  0  0  0  0  0  0  0  0  0  0  0
  -12.2002    0.8406   22.3968 N   0  0  0  0  0  0  0  0  0  0  0  0
  -10.9160    0.9515   21.9452 C   0  0  0  0  0  0  0  0  0  0  0  0
  2  1  1  1
  2  3  1  0
  2  9  1  0
  3  4  2  0
  3  8  1  0
  4  5  1  0
  5  6  2  0
  6  7  1  0
  7  8  2  0
  9 10  2  0
  9 13  1  0
 10 11  1  0
 11 12  2  0
 11 26  1  0
 12 13  1  0
 12 23  1  0
 14 13  1  1
 14 15  1  0
 15 16  2  0
 15 20  1  0
 17 16  1  6
 16 18  1  0
 18 19  2  0
 19 21  1  0
 20 21  2  0
 22 21  1  6
 23 24  2  0
 24 25  1  0
 24 27  1  0
 25 26  2  0
 27 28  2  0
 27 32  1  0
 28 29  1  0
 30 29  1  6
 29 31  1  0
 31 32  2  0
M  END
$$$$
