
     RDKit          3D

 32 36  0  0  0  0  0  0  0  0999 V2000
   -5.5914   -1.7861   10.4725 O   0  0  0  0  0  0  0  0  0  0  0  0
   -5.3395   -0.8319   11.4639 C   0  0  2  0  0  0  0  0  0  0  0  0
   -3.8341   -0.7224   11.6074 C   0  0  0  0  0  0  0  0  0  0  0  0
   -2.9858   -1.3289   10.7455 C   0  0  0  0  0  0  0  0  0  0  0  0
   -1.6295   -1.1597   10.9595 C   0  0  0  0  0  0  0  0  0  0  0  0
   -1.1597   -0.4215   11.9845 N   0  0  0  0  0  0  0  0  0  0  0  0
   -1.9808    0.1930   12.8577 C   0  0  0  0  0  0  0  0  0  0  0  0
   -3.3526    0.0248   12.6452 C   0  0  0  0  0  0  0  0  0  0  0  0
   -5.8600   -1.3815   12.7361 C   0  0  0  0  0  0  0  0  0  0  0  0
   -5.4885   -2.6666   13.0596 N   0  0  0  0  0  0  0  0  0  0  0  0
   -6.0118   -2.9412   14.2426 C   0  0  0  0  0  0  0  0  0  0  0  0
   -6.7081   -1.8343   14.6547 C   0  0  0  0  0  0  0  0  0  0  0  0
   -6.6076   -0.8471   13.6851 N   0  0  0  0  0  0  0  0  0  0  0  0
   -7.2783    0.4308   13.8097 C   0  0  0  0  0  0  0  0  0  0  0  0
   -8.6558    0.5079   13.3651 C   0  0  0  0  0  0  0  0  0  0  0  0
   -9.0200    0.7751   12.0758 C   0  0  0  0  0  0  0  0  0  0  0  0
   -8.1152    1.1547   11.0090 C   0  0  0  0  0  0  0  0  0  0  0  0
  -10.3831    0.7616   11.6989 C   0  0  0  0  0  0  0  0  0  0  0  0
  -11.3823    0.4882   12.5904 C   0  0  0  0  0  0  0  0  0  0  0  0
   -9.7070    0.2349   14.2494 C   0  0  0  0  0  0  0  0  0  0  0  0
  -11.0377    0.2244   13.8711 C   0  0  0  0  0  0  0  0  0  0  0  0
  -12.1283   -0.0821   14.8410 C   0  0  0  0  0  0  0  0  0  0  0  0
   -7.3111   -1.9047   15.8887 C   0  0  0  0  0  0  0  0  0  0  0  0
   -7.2440   -3.0300   16.7111 C   0  0  0  0  0  0  0  0  0  0  0  0
   -6.5289   -4.1059   16.2295 C   0  0  0  0  0  0  0  0  0  0  0  0
   -5.9143   -4.0879   15.0207 C   0  0  0  0  0  0  0  0  0  0  0  0
   -7.8831   -3.0594   18.0143 C   0  0  0  0  0  0  0  0  0  0  0  0
   -9.0067   -2.3645   18.3851 C   0  0  0  0  0  0  0  0  0  0  0  0
   -9.2904   -2.6633   19.6734 N   0  0  0  0  0  0  0  0  0  0  0  0
  -10.3955   -2.1416   20.4370 C   0  0  0  0  0  0  0  0  0  0  0  0
   -8.3896   -3.5145   20.1173 N   0  0  0  0  0  0  0  0  0  0  0  0
   -7.5026   -3.7814   19.1137 C   0  0  0  0  0  0  0  0  0  0  0  0
  2  1  1  6
  2  3  1  0
  2  9  1  0
  3  4  2  0
  3  8  1  0
  4  5  1  0
  5  6  2  0
  6  7  1  0
  7  8  2  0
  9 10  2  0
  9 13  1  0
 10 11  1  0
 11 12  2  0
 11 26  1  0
 12 13  1  0
 12 23  1  0
 14 13  1  1
 14 15  1  0
 15 16  2  0
 15 20  1  0
 17 16  1  6
 16 18  1  0
 18 19  2  0
 19 21  1  0
 20 21  2  0
 22 21  1  6
 23 24  2  0
 24 25  1  0
 24 27  1  0
 25 26  2  0
 27 28  2  0
 27 32  1  0
 28 29  1  0
 30 29  1  6
 29 31  1  0
 31 32  2  0
M  END
$$$$
