
     RDKit          3D

 32 36  0  0  0  0  0  0  0  0999 V2000
   -5.5688   -1.1267   15.4043 O   0  0  0  0  0  0  0  0  0  0  0  0
   -6.3655   -2.0072   16.1376 C   0  0  2  0  0  0  0  0  0  0  0  0
   -6.3579   -3.3544   15.4193 C   0  0  0  0  0  0  0  0  0  0  0  0
   -6.6319   -3.4244   14.0747 C   0  0  0  0  0  0  0  0  0  0  0  0
   -6.6218   -4.6920   13.4856 C   0  0  0  0  0  0  0  0  0  0  0  0
   -6.3586   -5.8160   14.1825 N   0  0  0  0  0  0  0  0  0  0  0  0
   -6.0915   -5.7535   15.4953 C   0  0  0  0  0  0  0  0  0  0  0  0
   -6.0927   -4.5044   16.1111 C   0  0  0  0  0  0  0  0  0  0  0  0
   -7.7430   -1.4794   16.1572 C   0  0  0  0  0  0  0  0  0  0  0  0
   -8.2176   -0.5730   15.2480 N   0  0  0  0  0  0  0  0  0  0  0  0
   -9.4953   -0.3188   15.4934 C   0  0  0  0  0  0  0  0  0  0  0  0
   -9.8574   -1.0588   16.5654 C   0  0  0  0  0  0  0  0  0  0  0  0
   -8.7441   -1.7743   16.9670 N   0  0  0  0  0  0  0  0  0  0  0  0
   -8.8802   -2.6544   18.1175 C   0  0  0  0  0  0  0  0  0  0  0  0
   -8.8888   -1.8862   19.3780 C   0  0  0  0  0  0  0  0  0  0  0  0
   -9.6010   -2.2946   20.4758 C   0  0  0  0  0  0  0  0  0  0  0  0
  -10.5852   -3.4036   20.4554 C   0  0  0  0  0  0  0  0  0  0  0  0
   -9.4653   -1.5535   21.6612 C   0  0  0  0  0  0  0  0  0  0  0  0
   -8.6529   -0.4534   21.7297 C   0  0  0  0  0  0  0  0  0  0  0  0
   -8.0587   -0.7469   19.4705 C   0  0  0  0  0  0  0  0  0  0  0  0
   -7.9315   -0.0230   20.6380 C   0  0  0  0  0  0  0  0  0  0  0  0
   -7.0494    1.1787   20.7359 C   0  0  0  0  0  0  0  0  0  0  0  0
  -11.1631   -1.0051   17.0106 C   0  0  0  0  0  0  0  0  0  0  0  0
  -12.1454   -0.2152   16.4134 C   0  0  0  0  0  0  0  0  0  0  0  0
  -11.7669    0.5377   15.3264 C   0  0  0  0  0  0  0  0  0  0  0  0
  -10.4466    0.4817   14.8727 C   0  0  0  0  0  0  0  0  0  0  0  0
  -13.5116   -0.2055   16.9227 C   0  0  0  0  0  0  0  0  0  0  0  0
  -14.6298    0.4237   16.4081 C   0  0  0  0  0  0  0  0  0  0  0  0
  -15.6967    0.1561   17.2091 N   0  0  0  0  0  0  0  0  0  0  0  0
  -17.0817    0.6109   17.0450 C   0  0  0  0  0  0  0  0  0  0  0  0
  -15.2522   -0.6077   18.1798 N   0  0  0  0  0  0  0  0  0  0  0  0
  -13.9434   -0.8576   18.0574 C   0  0  0  0  0  0  0  0  0  0  0  0
  2  1  1  6
  2  3  1  0
  2  9  1  0
  3  4  2  0
  3  8  1  0
  4  5  1  0
  5  6  2  0
  6  7  1  0
  7  8  2  0
  9 10  2  0
  9 13  1  0
 10 11  1  0
 11 12  2  0
 11 26  1  0
 12 13  1  0
 12 23  1  0
 13 14  1  0
 14 15  1  0
 15 16  2  0
 15 20  1  0
 16 17  1  0
 16 18  1  0
 18 19  2  0
 19 21  1  0
 20 21  2  0
 21 22  1  0
 23 24  2  0
 24 25  1  0
 24 27  1  0
 25 26  2  0
 27 28  2  0
 27 32  1  0
 28 29  1  0
 29 30  1  0
 29 31  1  0
 31 32  2  0
M  END
$$$$
