
     RDKit          3D

 32 36  0  0  0  0  0  0  0  0999 V2000
  -13.0217   -2.1871   15.0377 O   0  0  0  0  0  0  0  0  0  0  0  0
  -12.1679   -1.5230   15.9196 C   0  0  2  0  0  0  0  0  0  0  0  0
  -12.4121   -0.0235   15.7678 C   0  0  0  0  0  0  0  0  0  0  0  0
  -13.6698    0.4963   15.9565 C   0  0  0  0  0  0  0  0  0  0  0  0
  -13.8234    1.8754   15.7868 C   0  0  0  0  0  0  0  0  0  0  0  0
  -12.7990    2.6856   15.4516 N   0  0  0  0  0  0  0  0  0  0  0  0
  -11.5694    2.1832   15.2653 C   0  0  0  0  0  0  0  0  0  0  0  0
  -11.3840    0.8127   15.4283 C   0  0  0  0  0  0  0  0  0  0  0  0
  -10.7764   -1.8260   15.5345 C   0  0  0  0  0  0  0  0  0  0  0  0
  -10.3815   -2.0487   14.2431 N   0  0  0  0  0  0  0  0  0  0  0  0
   -9.0724   -2.2538   14.2035 C   0  0  0  0  0  0  0  0  0  0  0  0
   -8.6098   -2.1665   15.4708 C   0  0  0  0  0  0  0  0  0  0  0  0
   -9.6939   -1.9023   16.2879 N   0  0  0  0  0  0  0  0  0  0  0  0
   -9.4515   -1.7640   17.7157 C   0  0  0  0  0  0  0  0  0  0  0  0
   -9.6173   -3.0552   18.4118 C   0  0  0  0  0  0  0  0  0  0  0  0
   -8.7824   -3.4496   19.4251 C   0  0  0  0  0  0  0  0  0  0  0  0
   -7.5270   -2.7454   19.7815 C   0  0  0  0  0  0  0  0  0  0  0  0
   -9.0815   -4.6471   20.0956 C   0  0  0  0  0  0  0  0  0  0  0  0
  -10.1681   -5.4073   19.7546 C   0  0  0  0  0  0  0  0  0  0  0  0
  -10.7310   -3.8564   18.0752 C   0  0  0  0  0  0  0  0  0  0  0  0
  -11.0177   -5.0322   18.7374 C   0  0  0  0  0  0  0  0  0  0  0  0
  -12.1987   -5.8759   18.3837 C   0  0  0  0  0  0  0  0  0  0  0  0
   -7.2565   -2.3072   15.7048 C   0  0  0  0  0  0  0  0  0  0  0  0
   -6.3238   -2.5436   14.6949 C   0  0  0  0  0  0  0  0  0  0  0  0
   -6.8041   -2.6354   13.4094 C   0  0  0  0  0  0  0  0  0  0  0  0
   -8.1730   -2.4900   13.1708 C   0  0  0  0  0  0  0  0  0  0  0  0
   -4.9043   -2.6750   15.0012 C   0  0  0  0  0  0  0  0  0  0  0  0
   -4.2876   -2.8311   16.2285 C   0  0  0  0  0  0  0  0  0  0  0  0
   -2.9427   -2.9174   16.0408 N   0  0  0  0  0  0  0  0  0  0  0  0
   -1.9014   -3.0928   17.0591 C   0  0  0  0  0  0  0  0  0  0  0  0
   -2.7393   -2.8174   14.7479 N   0  0  0  0  0  0  0  0  0  0  0  0
   -3.8854   -2.6700   14.0732 C   0  0  0  0  0  0  0  0  0  0  0  0
  2  1  1  6
  2  3  1  0
  2  9  1  0
  3  4  2  0
  3  8  1  0
  4  5  1  0
  5  6  2  0
  6  7  1  0
  7  8  2  0
  9 10  2  0
  9 13  1  0
 10 11  1  0
 11 12  2  0
 11 26  1  0
 12 13  1  0
 12 23  1  0
 13 14  1  0
 14 15  1  0
 15 16  2  0
 15 20  1  0
 16 17  1  0
 16 18  1  0
 18 19  2  0
 19 21  1  0
 20 21  2  0
 21 22  1  0
 23 24  2  0
 24 25  1  0
 24 27  1  0
 25 26  2  0
 27 28  2  0
 27 32  1  0
 28 29  1  0
 29 30  1  0
 29 31  1  0
 31 32  2  0
M  END
$$$$
