
     RDKit          3D

 32 36  0  0  0  0  0  0  0  0999 V2000
   -5.8677   -2.6586   11.7358 O   0  0  0  0  0  0  0  0  0  0  0  0
   -5.9811   -1.4280   12.3914 C   0  0  2  0  0  0  0  0  0  0  0  0
   -4.5821   -0.8570   12.5163 C   0  0  0  0  0  0  0  0  0  0  0  0
   -3.5771   -1.5447   13.1056 C   0  0  0  0  0  0  0  0  0  0  0  0
   -2.3351   -0.9375   13.1611 C   0  0  0  0  0  0  0  0  0  0  0  0
   -2.1231    0.2918   12.6513 N   0  0  0  0  0  0  0  0  0  0  0  0
   -3.1049    0.9991   12.0596 C   0  0  0  0  0  0  0  0  0  0  0  0
   -4.3619    0.3894   12.0012 C   0  0  0  0  0  0  0  0  0  0  0  0
   -6.4606   -1.7109   13.7631 C   0  0  0  0  0  0  0  0  0  0  0  0
   -6.1565   -2.9459   14.2888 N   0  0  0  0  0  0  0  0  0  0  0  0
   -6.6259   -2.9736   15.5248 C   0  0  0  0  0  0  0  0  0  0  0  0
   -7.2218   -1.7632   15.7689 C   0  0  0  0  0  0  0  0  0  0  0  0
   -7.1137   -0.9670   14.6379 N   0  0  0  0  0  0  0  0  0  0  0  0
   -7.6898    0.3603   14.5682 C   0  0  0  0  0  0  0  0  0  0  0  0
   -8.8878    0.5269   13.7693 C   0  0  0  0  0  0  0  0  0  0  0  0
  -10.1526    0.4674   14.2822 C   0  0  0  0  0  0  0  0  0  0  0  0
  -10.4908    0.0962   15.6419 C   0  0  0  0  0  0  0  0  0  0  0  0
  -11.2734    0.7132   13.4554 C   0  0  0  0  0  0  0  0  0  0  0  0
  -11.1469    1.0138   12.1281 C   0  0  0  0  0  0  0  0  0  0  0  0
   -8.7988    0.8351   12.4059 C   0  0  0  0  0  0  0  0  0  0  0  0
   -9.9013    1.0737   11.6051 C   0  0  0  0  0  0  0  0  0  0  0  0
   -9.7644    1.4100   10.1586 C   0  0  0  0  0  0  0  0  0  0  0  0
   -7.7540   -1.5755   17.0230 C   0  0  0  0  0  0  0  0  0  0  0  0
   -7.7130   -2.5452   18.0256 C   0  0  0  0  0  0  0  0  0  0  0  0
   -7.1004   -3.7385   17.7068 C   0  0  0  0  0  0  0  0  0  0  0  0
   -6.5587   -3.9742   16.4861 C   0  0  0  0  0  0  0  0  0  0  0  0
   -8.2744   -2.3028   19.3423 C   0  0  0  0  0  0  0  0  0  0  0  0
   -9.3486   -1.5002   19.6333 C   0  0  0  0  0  0  0  0  0  0  0  0
   -9.5659   -1.5413   20.9678 N   0  0  0  0  0  0  0  0  0  0  0  0
  -10.6045   -0.8366   21.6757 C   0  0  0  0  0  0  0  0  0  0  0  0
   -8.6712   -2.3358   21.5167 N   0  0  0  0  0  0  0  0  0  0  0  0
   -7.8553   -2.8248   20.5367 C   0  0  0  0  0  0  0  0  0  0  0  0
  2  1  1  6
  2  3  1  0
  2  9  1  0
  3  4  2  0
  3  8  1  0
  4  5  1  0
  5  6  2  0
  6  7  1  0
  7  8  2  0
  9 10  2  0
  9 13  1  0
 10 11  1  0
 11 12  2  0
 11 26  1  0
 12 13  1  0
 12 23  1  0
 14 13  1  1
 14 15  1  0
 15 16  2  0
 15 20  1  0
 17 16  1  6
 16 18  1  0
 18 19  2  0
 19 21  1  0
 20 21  2  0
 22 21  1  6
 23 24  2  0
 24 25  1  0
 24 27  1  0
 25 26  2  0
 27 28  2  0
 27 32  1  0
 28 29  1  0
 30 29  1  6
 29 31  1  0
 31 32  2  0
M  END
$$$$
