
     RDKit          3D

 32 36  0  0  0  0  0  0  0  0999 V2000
   -8.2235   -0.2633   13.7098 O   0  0  0  0  0  0  0  0  0  0  0  0
   -7.9101   -0.9131   14.9045 C   0  0  2  0  0  0  0  0  0  0  0  0
   -6.9311   -2.0394   14.5821 C   0  0  0  0  0  0  0  0  0  0  0  0
   -5.8049   -2.2192   15.3484 C   0  0  0  0  0  0  0  0  0  0  0  0
   -4.9456   -3.2608   14.9868 C   0  0  0  0  0  0  0  0  0  0  0  0
   -5.1855   -4.0700   13.9352 N   0  0  0  0  0  0  0  0  0  0  0  0
   -6.2828   -3.8983   13.1833 C   0  0  0  0  0  0  0  0  0  0  0  0
   -7.1593   -2.8695   13.5189 C   0  0  0  0  0  0  0  0  0  0  0  0
   -9.1492   -1.4945   15.4550 C   0  0  0  0  0  0  0  0  0  0  0  0
  -10.1483   -2.0167   14.6788 N   0  0  0  0  0  0  0  0  0  0  0  0
  -11.1108   -2.4996   15.4519 C   0  0  0  0  0  0  0  0  0  0  0  0
  -10.7420   -2.2923   16.7359 C   0  0  0  0  0  0  0  0  0  0  0  0
   -9.5131   -1.6582   16.7143 N   0  0  0  0  0  0  0  0  0  0  0  0
   -8.8989   -1.3220   17.9896 C   0  0  0  0  0  0  0  0  0  0  0  0
   -7.9417   -2.3638   18.4111 C   0  0  0  0  0  0  0  0  0  0  0  0
   -7.0169   -2.1471   19.3996 C   0  0  0  0  0  0  0  0  0  0  0  0
   -6.7369   -0.8161   19.9906 C   0  0  0  0  0  0  0  0  0  0  0  0
   -6.2182   -3.2301   19.8023 C   0  0  0  0  0  0  0  0  0  0  0  0
   -6.3473   -4.4675   19.2304 C   0  0  0  0  0  0  0  0  0  0  0  0
   -8.0559   -3.6478   17.8333 C   0  0  0  0  0  0  0  0  0  0  0  0
   -7.2668   -4.7065   18.2331 C   0  0  0  0  0  0  0  0  0  0  0  0
   -7.3922   -6.0651   17.6247 C   0  0  0  0  0  0  0  0  0  0  0  0
  -11.5619   -2.7395   17.7526 C   0  0  0  0  0  0  0  0  0  0  0  0
  -12.7709   -3.3985   17.5295 C   0  0  0  0  0  0  0  0  0  0  0  0
  -13.1402   -3.6010   16.2201 C   0  0  0  0  0  0  0  0  0  0  0  0
  -12.3097   -3.1518   15.1903 C   0  0  0  0  0  0  0  0  0  0  0  0
  -13.5919   -3.8563   18.6441 C   0  0  0  0  0  0  0  0  0  0  0  0
  -13.5990   -3.4246   19.9573 C   0  0  0  0  0  0  0  0  0  0  0  0
  -14.5332   -4.1303   20.6507 N   0  0  0  0  0  0  0  0  0  0  0  0
  -14.8870   -4.0039   22.0687 C   0  0  0  0  0  0  0  0  0  0  0  0
  -15.0795   -4.9649   19.7973 N   0  0  0  0  0  0  0  0  0  0  0  0
  -14.5513   -4.8433   18.5739 C   0  0  0  0  0  0  0  0  0  0  0  0
  2  1  1  6
  2  3  1  0
  2  9  1  0
  3  4  2  0
  3  8  1  0
  4  5  1  0
  5  6  2  0
  6  7  1  0
  7  8  2  0
  9 10  2  0
  9 13  1  0
 10 11  1  0
 11 12  2  0
 11 26  1  0
 12 13  1  0
 12 23  1  0
 13 14  1  0
 14 15  1  0
 15 16  2  0
 15 20  1  0
 16 17  1  0
 16 18  1  0
 18 19  2  0
 19 21  1  0
 20 21  2  0
 21 22  1  0
 23 24  2  0
 24 25  1  0
 24 27  1  0
 25 26  2  0
 27 28  2  0
 27 32  1  0
 28 29  1  0
 29 30  1  0
 29 31  1  0
 31 32  2  0
M  END
$$$$
