
     RDKit          3D

 32 36  0  0  0  0  0  0  0  0999 V2000
   -8.2142   -1.9407   10.8514 O   0  0  0  0  0  0  0  0  0  0  0  0
   -7.7257   -0.9935   11.7575 C   0  0  2  0  0  0  0  0  0  0  0  0
   -8.5080    0.2858   11.5329 C   0  0  0  0  0  0  0  0  0  0  0  0
   -9.2396    0.4914   10.4136 C   0  0  0  0  0  0  0  0  0  0  0  0
   -9.9236    1.6895   10.3095 C   0  0  0  0  0  0  0  0  0  0  0  0
   -9.8701    2.6236   11.2795 N   0  0  0  0  0  0  0  0  0  0  0  0
   -9.1498    2.4457   12.4037 C   0  0  0  0  0  0  0  0  0  0  0  0
   -8.4568    1.2361   12.5133 C   0  0  0  0  0  0  0  0  0  0  0  0
   -6.3210   -0.7176   11.3801 C   0  0  0  0  0  0  0  0  0  0  0  0
   -5.9964   -0.8410   10.0484 N   0  0  0  0  0  0  0  0  0  0  0  0
   -4.7238   -0.5048    9.9212 C   0  0  0  0  0  0  0  0  0  0  0  0
   -4.2557   -0.1753   11.1670 C   0  0  0  0  0  0  0  0  0  0  0  0
   -5.2814   -0.3178   12.0903 N   0  0  0  0  0  0  0  0  0  0  0  0
   -5.0850   -0.0865   13.5067 C   0  0  0  0  0  0  0  0  0  0  0  0
   -5.2396   -1.2207   14.3961 C   0  0  0  0  0  0  0  0  0  0  0  0
   -5.8554   -1.1482   15.6134 C   0  0  0  0  0  0  0  0  0  0  0  0
   -6.3116    0.0702   16.2525 C   0  0  0  0  0  0  0  0  0  0  0  0
   -6.0354   -2.3125   16.3958 C   0  0  0  0  0  0  0  0  0  0  0  0
   -5.6076   -3.5422   15.9802 C   0  0  0  0  0  0  0  0  0  0  0  0
   -4.8132   -2.4964   14.0058 C   0  0  0  0  0  0  0  0  0  0  0  0
   -4.9936   -3.6296   14.7785 C   0  0  0  0  0  0  0  0  0  0  0  0
   -4.5347   -4.9734   14.3225 C   0  0  0  0  0  0  0  0  0  0  0  0
   -2.9457    0.2352   11.2489 C   0  0  0  0  0  0  0  0  0  0  0  0
   -2.0999    0.3231   10.1426 C   0  0  0  0  0  0  0  0  0  0  0  0
   -2.6389   -0.0270    8.9229 C   0  0  0  0  0  0  0  0  0  0  0  0
   -3.9245   -0.4368    8.7870 C   0  0  0  0  0  0  0  0  0  0  0  0
   -0.7259    0.7749   10.2690 C   0  0  0  0  0  0  0  0  0  0  0  0
    0.1083    0.5530   11.3356 C   0  0  0  0  0  0  0  0  0  0  0  0
    1.3048    1.1256   11.0708 N   0  0  0  0  0  0  0  0  0  0  0  0
    2.4553    1.1160   11.9384 C   0  0  0  0  0  0  0  0  0  0  0  0
    1.2476    1.6934    9.8845 N   0  0  0  0  0  0  0  0  0  0  0  0
    0.0024    1.4943    9.3599 C   0  0  0  0  0  0  0  0  0  0  0  0
  2  1  1  6
  2  3  1  0
  2  9  1  0
  3  4  2  0
  3  8  1  0
  4  5  1  0
  5  6  2  0
  6  7  1  0
  7  8  2  0
  9 10  2  0
  9 13  1  0
 10 11  1  0
 11 12  2  0
 11 26  1  0
 12 13  1  0
 12 23  1  0
 14 13  1  1
 14 15  1  0
 15 16  2  0
 15 20  1  0
 17 16  1  6
 16 18  1  0
 18 19  2  0
 19 21  1  0
 20 21  2  0
 22 21  1  6
 23 24  2  0
 24 25  1  0
 24 27  1  0
 25 26  2  0
 27 28  2  0
 27 32  1  0
 28 29  1  0
 30 29  1  6
 29 31  1  0
 31 32  2  0
M  END
$$$$
