
     RDKit          3D

 32 36  0  0  0  0  0  0  0  0999 V2000
   -5.0186   -2.9429   16.3354 O   0  0  0  0  0  0  0  0  0  0  0  0
   -6.2874   -2.8720   15.7583 C   0  0  2  0  0  0  0  0  0  0  0  0
   -6.1834   -2.0083   14.5035 C   0  0  0  0  0  0  0  0  0  0  0  0
   -5.5770   -0.7767   14.5584 C   0  0  0  0  0  0  0  0  0  0  0  0
   -5.5305   -0.0340   13.3751 C   0  0  0  0  0  0  0  0  0  0  0  0
   -6.0511   -0.4814   12.2144 N   0  0  0  0  0  0  0  0  0  0  0  0
   -6.6450   -1.6825   12.1556 C   0  0  0  0  0  0  0  0  0  0  0  0
   -6.7061   -2.4471   13.3179 C   0  0  0  0  0  0  0  0  0  0  0  0
   -7.1977   -2.2194   16.7184 C   0  0  0  0  0  0  0  0  0  0  0  0
   -6.7932   -1.2688   17.6163 N   0  0  0  0  0  0  0  0  0  0  0  0
   -7.8351   -0.8392   18.3143 C   0  0  0  0  0  0  0  0  0  0  0  0
   -8.9229   -1.5101   17.8737 C   0  0  0  0  0  0  0  0  0  0  0  0
   -8.5001   -2.3716   16.8777 N   0  0  0  0  0  0  0  0  0  0  0  0
   -9.4988   -3.2152   16.2394 C   0  0  0  0  0  0  0  0  0  0  0  0
   -9.3958   -4.6110   16.7085 C   0  0  0  0  0  0  0  0  0  0  0  0
  -10.2597   -5.1341   17.6356 C   0  0  0  0  0  0  0  0  0  0  0  0
  -11.2305   -4.3229   18.4093 C   0  0  0  0  0  0  0  0  0  0  0  0
  -10.1470   -6.5001   17.9429 C   0  0  0  0  0  0  0  0  0  0  0  0
   -9.2053   -7.2940   17.3446 C   0  0  0  0  0  0  0  0  0  0  0  0
   -8.4306   -5.4479   16.1057 C   0  0  0  0  0  0  0  0  0  0  0  0
   -8.3249   -6.7886   16.4137 C   0  0  0  0  0  0  0  0  0  0  0  0
   -7.3068   -7.6735   15.7717 C   0  0  0  0  0  0  0  0  0  0  0  0
  -10.1584   -1.2211   18.4178 C   0  0  0  0  0  0  0  0  0  0  0  0
  -10.3529   -0.2660   19.4156 C   0  0  0  0  0  0  0  0  0  0  0  0
   -9.2399    0.4083   19.8609 C   0  0  0  0  0  0  0  0  0  0  0  0
   -7.9894    0.1191   19.3088 C   0  0  0  0  0  0  0  0  0  0  0  0
  -11.6838    0.0030   19.9467 C   0  0  0  0  0  0  0  0  0  0  0  0
  -12.9057   -0.4908   19.5293 C   0  0  0  0  0  0  0  0  0  0  0  0
  -13.8858    0.0267   20.3186 N   0  0  0  0  0  0  0  0  0  0  0  0
  -15.3291   -0.2245   20.2426 C   0  0  0  0  0  0  0  0  0  0  0  0
  -13.2902    0.8097   21.1878 N   0  0  0  0  0  0  0  0  0  0  0  0
  -11.9642    0.8330   21.0105 C   0  0  0  0  0  0  0  0  0  0  0  0
  2  1  1  1
  2  3  1  0
  2  9  1  0
  3  4  2  0
  3  8  1  0
  4  5  1  0
  5  6  2  0
  6  7  1  0
  7  8  2  0
  9 10  2  0
  9 13  1  0
 10 11  1  0
 11 12  2  0
 11 26  1  0
 12 13  1  0
 12 23  1  0
 13 14  1  0
 14 15  1  0
 15 16  2  0
 15 20  1  0
 16 17  1  0
 16 18  1  0
 18 19  2  0
 19 21  1  0
 20 21  2  0
 21 22  1  0
 23 24  2  0
 24 25  1  0
 24 27  1  0
 25 26  2  0
 27 28  2  0
 27 32  1  0
 28 29  1  0
 29 30  1  0
 29 31  1  0
 31 32  2  0
M  END
$$$$
