
     RDKit          3D

 32 36  0  0  0  0  0  0  0  0999 V2000
   -7.2187    0.8851   18.9595 O   0  0  0  0  0  0  0  0  0  0  0  0
   -8.2015    0.2499   18.1929 C   0  0  2  0  0  0  0  0  0  0  0  0
   -9.2031   -0.3519   19.1591 C   0  0  0  0  0  0  0  0  0  0  0  0
  -10.5380   -0.2454   18.9666 C   0  0  0  0  0  0  0  0  0  0  0  0
  -11.3671   -0.8374   19.9027 C   0  0  0  0  0  0  0  0  0  0  0  0
  -10.8749   -1.4970   20.9699 N   0  0  0  0  0  0  0  0  0  0  0  0
   -9.5510   -1.6182   21.1867 C   0  0  0  0  0  0  0  0  0  0  0  0
   -8.7092   -1.0215   20.2430 C   0  0  0  0  0  0  0  0  0  0  0  0
   -7.5431   -0.8747   17.4907 C   0  0  0  0  0  0  0  0  0  0  0  0
   -6.2950   -1.2449   17.9371 N   0  0  0  0  0  0  0  0  0  0  0  0
   -5.9132   -2.2869   17.2178 C   0  0  0  0  0  0  0  0  0  0  0  0
   -6.9165   -2.5646   16.3257 C   0  0  0  0  0  0  0  0  0  0  0  0
   -7.9494   -1.6560   16.5060 N   0  0  0  0  0  0  0  0  0  0  0  0
   -9.1377   -1.6611   15.6776 C   0  0  0  0  0  0  0  0  0  0  0  0
   -9.0828   -0.9305   14.4268 C   0  0  0  0  0  0  0  0  0  0  0  0
  -10.1902   -0.5706   13.7125 C   0  0  0  0  0  0  0  0  0  0  0  0
  -11.5498   -0.9755   14.0102 C   0  0  0  0  0  0  0  0  0  0  0  0
  -10.0637    0.2062   12.5375 C   0  0  0  0  0  0  0  0  0  0  0  0
   -8.8499    0.6239   12.0681 C   0  0  0  0  0  0  0  0  0  0  0  0
   -7.8577   -0.4862   13.9136 C   0  0  0  0  0  0  0  0  0  0  0  0
   -7.7441    0.2732   12.7629 C   0  0  0  0  0  0  0  0  0  0  0  0
   -6.4210    0.7367   12.2542 C   0  0  0  0  0  0  0  0  0  0  0  0
   -6.7264   -3.6435   15.4944 C   0  0  0  0  0  0  0  0  0  0  0  0
   -5.5815   -4.4407   15.5236 C   0  0  0  0  0  0  0  0  0  0  0  0
   -4.6140   -4.0995   16.4447 C   0  0  0  0  0  0  0  0  0  0  0  0
   -4.7523   -3.0467   17.2882 C   0  0  0  0  0  0  0  0  0  0  0  0
   -5.4250   -5.5805   14.6381 C   0  0  0  0  0  0  0  0  0  0  0  0
   -6.2837   -5.9558   13.6359 C   0  0  0  0  0  0  0  0  0  0  0  0
   -5.7859   -7.0611   13.0359 N   0  0  0  0  0  0  0  0  0  0  0  0
   -6.3887   -7.7668   11.9335 C   0  0  0  0  0  0  0  0  0  0  0  0
   -4.6542   -7.3872   13.6241 N   0  0  0  0  0  0  0  0  0  0  0  0
   -4.4011   -6.4894   14.6217 C   0  0  0  0  0  0  0  0  0  0  0  0
  2  1  1  1
  2  3  1  0
  2  9  1  0
  3  4  2  0
  3  8  1  0
  4  5  1  0
  5  6  2  0
  6  7  1  0
  7  8  2  0
  9 10  2  0
  9 13  1  0
 10 11  1  0
 11 12  2  0
 11 26  1  0
 12 13  1  0
 12 23  1  0
 14 13  1  1
 14 15  1  0
 15 16  2  0
 15 20  1  0
 17 16  1  6
 16 18  1  0
 18 19  2  0
 19 21  1  0
 20 21  2  0
 22 21  1  6
 23 24  2  0
 24 25  1  0
 24 27  1  0
 25 26  2  0
 27 28  2  0
 27 32  1  0
 28 29  1  0
 30 29  1  6
 29 31  1  0
 31 32  2  0
M  END
$$$$
