
     RDKit          3D

 32 36  0  0  0  0  0  0  0  0999 V2000
   -6.3838   -0.0392   16.3183 O   0  0  0  0  0  0  0  0  0  0  0  0
   -6.9597   -1.2306   16.7617 C   0  0  2  0  0  0  0  0  0  0  0  0
   -6.8221   -2.2616   15.6440 C   0  0  0  0  0  0  0  0  0  0  0  0
   -7.4171   -2.0452   14.4246 C   0  0  0  0  0  0  0  0  0  0  0  0
   -7.2620   -3.0379   13.4527 C   0  0  0  0  0  0  0  0  0  0  0  0
   -6.5644   -4.1703   13.6745 N   0  0  0  0  0  0  0  0  0  0  0  0
   -5.9824   -4.3870   14.8633 C   0  0  0  0  0  0  0  0  0  0  0  0
   -6.1178   -3.4157   15.8520 C   0  0  0  0  0  0  0  0  0  0  0  0
   -8.3919   -0.9861   17.0181 C   0  0  0  0  0  0  0  0  0  0  0  0
   -9.0651    0.1125   16.5562 N   0  0  0  0  0  0  0  0  0  0  0  0
  -10.3409    0.0373   16.9082 C   0  0  0  0  0  0  0  0  0  0  0  0
  -10.5030   -1.1114   17.6025 C   0  0  0  0  0  0  0  0  0  0  0  0
   -9.2695   -1.7339   17.6626 N   0  0  0  0  0  0  0  0  0  0  0  0
   -9.1822   -3.0032   18.3684 C   0  0  0  0  0  0  0  0  0  0  0  0
   -9.5027   -2.8399   19.8001 C   0  0  0  0  0  0  0  0  0  0  0  0
   -8.8387   -1.9447   20.5983 C   0  0  0  0  0  0  0  0  0  0  0  0
   -7.6165   -1.2157   20.1815 C   0  0  0  0  0  0  0  0  0  0  0  0
   -9.2832   -1.7871   21.9214 C   0  0  0  0  0  0  0  0  0  0  0  0
  -10.3432   -2.5022   22.4113 C   0  0  0  0  0  0  0  0  0  0  0  0
  -10.5920   -3.5687   20.3272 C   0  0  0  0  0  0  0  0  0  0  0  0
  -11.0221   -3.4096   21.6284 C   0  0  0  0  0  0  0  0  0  0  0  0
  -12.1773   -4.1774   22.1830 C   0  0  0  0  0  0  0  0  0  0  0  0
  -11.7612   -1.4509   18.0582 C   0  0  0  0  0  0  0  0  0  0  0  0
  -12.8925   -0.6630   17.8459 C   0  0  0  0  0  0  0  0  0  0  0  0
  -12.7173    0.5059   17.1426 C   0  0  0  0  0  0  0  0  0  0  0  0
  -11.4451    0.8491   16.6780 C   0  0  0  0  0  0  0  0  0  0  0  0
  -14.1988   -1.0773   18.3439 C   0  0  0  0  0  0  0  0  0  0  0  0
  -15.4385   -0.5085   18.1191 C   0  0  0  0  0  0  0  0  0  0  0  0
  -16.3837   -1.2309   18.7795 N   0  0  0  0  0  0  0  0  0  0  0  0
  -17.8312   -0.9957   18.8191 C   0  0  0  0  0  0  0  0  0  0  0  0
  -15.7502   -2.2063   19.3881 N   0  0  0  0  0  0  0  0  0  0  0  0
  -14.4323   -2.1627   19.1604 C   0  0  0  0  0  0  0  0  0  0  0  0
  2  1  1  6
  2  3  1  0
  2  9  1  0
  3  4  2  0
  3  8  1  0
  4  5  1  0
  5  6  2  0
  6  7  1  0
  7  8  2  0
  9 10  2  0
  9 13  1  0
 10 11  1  0
 11 12  2  0
 11 26  1  0
 12 13  1  0
 12 23  1  0
 13 14  1  0
 14 15  1  0
 15 16  2  0
 15 20  1  0
 16 17  1  0
 16 18  1  0
 18 19  2  0
 19 21  1  0
 20 21  2  0
 21 22  1  0
 23 24  2  0
 24 25  1  0
 24 27  1  0
 25 26  2  0
 27 28  2  0
 27 32  1  0
 28 29  1  0
 29 30  1  0
 29 31  1  0
 31 32  2  0
M  END
$$$$
