
     RDKit          3D

 32 36  0  0  0  0  0  0  0  0999 V2000
  -10.7834   -2.1686   14.0307 O   0  0  0  0  0  0  0  0  0  0  0  0
   -9.9262   -1.5852   14.9696 C   0  0  2  0  0  0  0  0  0  0  0  0
  -10.5663   -0.2838   15.4120 C   0  0  0  0  0  0  0  0  0  0  0  0
  -11.5494    0.3107   14.6975 C   0  0  0  0  0  0  0  0  0  0  0  0
  -12.0729    1.4919   15.1921 C   0  0  0  0  0  0  0  0  0  0  0  0
  -11.6278    2.0391   16.3406 N   0  0  0  0  0  0  0  0  0  0  0  0
  -10.6505    1.4694   17.0717 C   0  0  0  0  0  0  0  0  0  0  0  0
  -10.1185    0.2752   16.5756 C   0  0  0  0  0  0  0  0  0  0  0  0
   -8.6765   -1.2362   14.2569 C   0  0  0  0  0  0  0  0  0  0  0  0
   -8.7796   -0.9648   12.9117 N   0  0  0  0  0  0  0  0  0  0  0  0
   -7.5737   -0.6301   12.4845 C   0  0  0  0  0  0  0  0  0  0  0  0
   -6.7217   -0.6941   13.5567 C   0  0  0  0  0  0  0  0  0  0  0  0
   -7.4345   -1.0849   14.6810 N   0  0  0  0  0  0  0  0  0  0  0  0
   -6.8001   -1.2883   15.9673 C   0  0  0  0  0  0  0  0  0  0  0  0
   -6.7628   -2.6411   16.4868 C   0  0  0  0  0  0  0  0  0  0  0  0
   -7.2361   -2.9906   17.7197 C   0  0  0  0  0  0  0  0  0  0  0  0
   -7.7064   -2.0657   18.7318 C   0  0  0  0  0  0  0  0  0  0  0  0
   -7.2342   -4.3438   18.1308 C   0  0  0  0  0  0  0  0  0  0  0  0
   -6.7650   -5.3472   17.3301 C   0  0  0  0  0  0  0  0  0  0  0  0
   -6.2886   -3.6958   15.6965 C   0  0  0  0  0  0  0  0  0  0  0  0
   -6.2905   -5.0166   16.1077 C   0  0  0  0  0  0  0  0  0  0  0  0
   -5.7867   -6.1135   15.2318 C   0  0  0  0  0  0  0  0  0  0  0  0
   -5.4097   -0.3513   13.3279 C   0  0  0  0  0  0  0  0  0  0  0  0
   -4.9280    0.0452   12.0797 C   0  0  0  0  0  0  0  0  0  0  0  0
   -5.8419    0.0832   11.0480 C   0  0  0  0  0  0  0  0  0  0  0  0
   -7.1467   -0.2434   11.2203 C   0  0  0  0  0  0  0  0  0  0  0  0
   -3.5375    0.4130   11.8823 C   0  0  0  0  0  0  0  0  0  0  0  0
   -2.7235    1.0358   12.7946 C   0  0  0  0  0  0  0  0  0  0  0  0
   -1.5015    1.1989   12.2382 N   0  0  0  0  0  0  0  0  0  0  0  0
   -0.3607    1.8103   12.8717 C   0  0  0  0  0  0  0  0  0  0  0  0
   -1.5235    0.7033   11.0188 N   0  0  0  0  0  0  0  0  0  0  0  0
   -2.7709    0.2077   10.7666 C   0  0  0  0  0  0  0  0  0  0  0  0
  2  1  1  6
  2  3  1  0
  2  9  1  0
  3  4  2  0
  3  8  1  0
  4  5  1  0
  5  6  2  0
  6  7  1  0
  7  8  2  0
  9 10  2  0
  9 13  1  0
 10 11  1  0
 11 12  2  0
 11 26  1  0
 12 13  1  0
 12 23  1  0
 14 13  1  1
 14 15  1  0
 15 16  2  0
 15 20  1  0
 17 16  1  6
 16 18  1  0
 18 19  2  0
 19 21  1  0
 20 21  2  0
 22 21  1  6
 23 24  2  0
 24 25  1  0
 24 27  1  0
 25 26  2  0
 27 28  2  0
 27 32  1  0
 28 29  1  0
 30 29  1  6
 29 31  1  0
 31 32  2  0
M  END
$$$$
