
     RDKit          3D

 32 36  0  0  0  0  0  0  0  0999 V2000
   -9.8115   -0.5578   14.2128 O   0  0  0  0  0  0  0  0  0  0  0  0
   -8.4809   -0.2954   14.5423 C   0  0  2  0  0  0  0  0  0  0  0  0
   -7.8370    0.4188   13.3564 C   0  0  0  0  0  0  0  0  0  0  0  0
   -8.5732    0.6917   12.2289 C   0  0  0  0  0  0  0  0  0  0  0  0
   -7.9154    1.3347   11.1762 C   0  0  0  0  0  0  0  0  0  0  0  0
   -6.6143    1.6834   11.2363 N   0  0  0  0  0  0  0  0  0  0  0  0
   -5.8908    1.4186   12.3342 C   0  0  0  0  0  0  0  0  0  0  0  0
   -6.5182    0.7797   13.4007 C   0  0  0  0  0  0  0  0  0  0  0  0
   -7.7945   -1.5830   14.7599 C   0  0  0  0  0  0  0  0  0  0  0  0
   -7.8022   -2.6062   13.8508 N   0  0  0  0  0  0  0  0  0  0  0  0
   -7.0700   -3.6141   14.3038 C   0  0  0  0  0  0  0  0  0  0  0  0
   -6.5832   -3.2509   15.5117 C   0  0  0  0  0  0  0  0  0  0  0  0
   -7.0526   -1.9777   15.7791 N   0  0  0  0  0  0  0  0  0  0  0  0
   -6.6635   -1.3601   17.0376 C   0  0  0  0  0  0  0  0  0  0  0  0
   -7.7754   -1.3826   18.0083 C   0  0  0  0  0  0  0  0  0  0  0  0
   -8.2377   -0.2428   18.6138 C   0  0  0  0  0  0  0  0  0  0  0  0
   -7.5552    1.0711   18.5304 C   0  0  0  0  0  0  0  0  0  0  0  0
   -9.3658   -0.3499   19.4438 C   0  0  0  0  0  0  0  0  0  0  0  0
   -9.9908   -1.5502   19.6525 C   0  0  0  0  0  0  0  0  0  0  0  0
   -8.4342   -2.6106   18.2397 C   0  0  0  0  0  0  0  0  0  0  0  0
   -9.5410   -2.7083   19.0576 C   0  0  0  0  0  0  0  0  0  0  0  0
  -10.2396   -4.0067   19.2974 C   0  0  0  0  0  0  0  0  0  0  0  0
   -5.7502   -4.1178   16.1903 C   0  0  0  0  0  0  0  0  0  0  0  0
   -5.3796   -5.3691   15.6978 C   0  0  0  0  0  0  0  0  0  0  0  0
   -5.8833   -5.7320   14.4704 C   0  0  0  0  0  0  0  0  0  0  0  0
   -6.7238   -4.8543   13.7811 C   0  0  0  0  0  0  0  0  0  0  0  0
   -4.4888   -6.2394   16.4561 C   0  0  0  0  0  0  0  0  0  0  0  0
   -3.6044   -5.9142   17.4675 C   0  0  0  0  0  0  0  0  0  0  0  0
   -2.9808   -7.0467   17.8919 N   0  0  0  0  0  0  0  0  0  0  0  0
   -1.9712   -7.1762   18.9483 C   0  0  0  0  0  0  0  0  0  0  0  0
   -3.4622   -8.0309   17.1689 N   0  0  0  0  0  0  0  0  0  0  0  0
   -4.3740   -7.6025   16.2883 C   0  0  0  0  0  0  0  0  0  0  0  0
  2  1  1  6
  2  3  1  0
  2  9  1  0
  3  4  2  0
  3  8  1  0
  4  5  1  0
  5  6  2  0
  6  7  1  0
  7  8  2  0
  9 10  2  0
  9 13  1  0
 10 11  1  0
 11 12  2  0
 11 26  1  0
 12 13  1  0
 12 23  1  0
 13 14  1  0
 14 15  1  0
 15 16  2  0
 15 20  1  0
 16 17  1  0
 16 18  1  0
 18 19  2  0
 19 21  1  0
 20 21  2  0
 21 22  1  0
 23 24  2  0
 24 25  1  0
 24 27  1  0
 25 26  2  0
 27 28  2  0
 27 32  1  0
 28 29  1  0
 29 30  1  0
 29 31  1  0
 31 32  2  0
M  END
$$$$
