
     RDKit          3D

 32 36  0  0  0  0  0  0  0  0999 V2000
   -6.3515    1.0038   15.2036 O   0  0  0  0  0  0  0  0  0  0  0  0
   -6.8812   -0.2826   15.0572 C   0  0  2  0  0  0  0  0  0  0  0  0
   -6.9747   -0.5614   13.5697 C   0  0  0  0  0  0  0  0  0  0  0  0
   -6.8895    0.4259   12.6486 C   0  0  0  0  0  0  0  0  0  0  0  0
   -6.9783    0.0648   11.3160 C   0  0  0  0  0  0  0  0  0  0  0  0
   -7.1438   -1.2182   10.9382 N   0  0  0  0  0  0  0  0  0  0  0  0
   -7.2321   -2.2209   11.8333 C   0  0  0  0  0  0  0  0  0  0  0  0
   -7.1429   -1.8606   13.1815 C   0  0  0  0  0  0  0  0  0  0  0  0
   -8.2652   -0.2432   15.5813 C   0  0  0  0  0  0  0  0  0  0  0  0
   -9.2176    0.3513   14.7854 N   0  0  0  0  0  0  0  0  0  0  0  0
  -10.3784    0.2356   15.4083 C   0  0  0  0  0  0  0  0  0  0  0  0
  -10.1517   -0.4258   16.5876 C   0  0  0  0  0  0  0  0  0  0  0  0
   -8.8004   -0.7233   16.6895 N   0  0  0  0  0  0  0  0  0  0  0  0
   -8.2387   -1.3824   17.8506 C   0  0  0  0  0  0  0  0  0  0  0  0
   -8.1562   -2.8294   17.8222 C   0  0  0  0  0  0  0  0  0  0  0  0
   -8.6659   -3.6348   18.8008 C   0  0  0  0  0  0  0  0  0  0  0  0
   -9.2272   -3.1781   20.0567 C   0  0  0  0  0  0  0  0  0  0  0  0
   -8.6139   -5.0421   18.6699 C   0  0  0  0  0  0  0  0  0  0  0  0
   -8.0592   -5.6518   17.5797 C   0  0  0  0  0  0  0  0  0  0  0  0
   -7.5945   -3.4903   16.7225 C   0  0  0  0  0  0  0  0  0  0  0  0
   -7.5479   -4.8678   16.6037 C   0  0  0  0  0  0  0  0  0  0  0  0
   -6.9506   -5.5343   15.4107 C   0  0  0  0  0  0  0  0  0  0  0  0
  -11.2480   -0.6754   17.3795 C   0  0  0  0  0  0  0  0  0  0  0  0
  -12.5443   -0.2887   17.0372 C   0  0  0  0  0  0  0  0  0  0  0  0
  -12.6952    0.3745   15.8379 C   0  0  0  0  0  0  0  0  0  0  0  0
  -11.6480    0.6443   15.0196 C   0  0  0  0  0  0  0  0  0  0  0  0
  -13.6780   -0.5838   17.8947 C   0  0  0  0  0  0  0  0  0  0  0  0
  -13.6563   -1.3371   19.0413 C   0  0  0  0  0  0  0  0  0  0  0  0
  -14.9068   -1.3719   19.5557 N   0  0  0  0  0  0  0  0  0  0  0  0
  -15.3056   -2.0576   20.7587 C   0  0  0  0  0  0  0  0  0  0  0  0
  -15.7034   -0.6716   18.7760 N   0  0  0  0  0  0  0  0  0  0  0  0
  -14.9733   -0.1689   17.7370 C   0  0  0  0  0  0  0  0  0  0  0  0
  2  1  1  6
  2  3  1  0
  2  9  1  0
  3  4  2  0
  3  8  1  0
  4  5  1  0
  5  6  2  0
  6  7  1  0
  7  8  2  0
  9 10  2  0
  9 13  1  0
 10 11  1  0
 11 12  2  0
 11 26  1  0
 12 13  1  0
 12 23  1  0
 14 13  1  1
 14 15  1  0
 15 16  2  0
 15 20  1  0
 17 16  1  6
 16 18  1  0
 18 19  2  0
 19 21  1  0
 20 21  2  0
 22 21  1  6
 23 24  2  0
 24 25  1  0
 24 27  1  0
 25 26  2  0
 27 28  2  0
 27 32  1  0
 28 29  1  0
 30 29  1  6
 29 31  1  0
 31 32  2  0
M  END
$$$$
