
     RDKit          3D

 32 36  0  0  0  0  0  0  0  0999 V2000
   -6.3389   -2.3291   13.3875 O   0  0  0  0  0  0  0  0  0  0  0  0
   -6.2982   -2.3340   14.7858 C   0  0  2  0  0  0  0  0  0  0  0  0
   -6.0509   -3.7652   15.2212 C   0  0  0  0  0  0  0  0  0  0  0  0
   -5.0023   -4.1047   16.0059 C   0  0  0  0  0  0  0  0  0  0  0  0
   -4.8708   -5.4373   16.3539 C   0  0  0  0  0  0  0  0  0  0  0  0
   -5.7474   -6.3703   15.9327 N   0  0  0  0  0  0  0  0  0  0  0  0
   -6.7997   -6.0608   15.1509 C   0  0  0  0  0  0  0  0  0  0  0  0
   -6.9366   -4.7150   14.7967 C   0  0  0  0  0  0  0  0  0  0  0  0
   -7.6503   -1.9615   15.2596 C   0  0  0  0  0  0  0  0  0  0  0  0
   -8.6418   -1.8700   14.3095 N   0  0  0  0  0  0  0  0  0  0  0  0
   -9.7666   -1.5805   14.9417 C   0  0  0  0  0  0  0  0  0  0  0  0
   -9.4788   -1.4898   16.2791 C   0  0  0  0  0  0  0  0  0  0  0  0
   -8.1260   -1.7311   16.4703 N   0  0  0  0  0  0  0  0  0  0  0  0
   -7.5047   -1.6609   17.7769 C   0  0  0  0  0  0  0  0  0  0  0  0
   -6.9007   -0.4006   18.1621 C   0  0  0  0  0  0  0  0  0  0  0  0
   -6.8896    0.0716   19.4440 C   0  0  0  0  0  0  0  0  0  0  0  0
   -7.5856   -0.5272   20.5656 C   0  0  0  0  0  0  0  0  0  0  0  0
   -6.2165    1.2750   19.7584 C   0  0  0  0  0  0  0  0  0  0  0  0
   -5.5596    2.0104   18.8120 C   0  0  0  0  0  0  0  0  0  0  0  0
   -6.2193    0.3809   17.2207 C   0  0  0  0  0  0  0  0  0  0  0  0
   -5.5640    1.5572   17.5379 C   0  0  0  0  0  0  0  0  0  0  0  0
   -4.8396    2.3562   16.5078 C   0  0  0  0  0  0  0  0  0  0  0  0
  -10.5308   -1.2211   17.1232 C   0  0  0  0  0  0  0  0  0  0  0  0
  -11.8415   -1.0401   16.6801 C   0  0  0  0  0  0  0  0  0  0  0  0
  -12.0548   -1.1430   15.3219 C   0  0  0  0  0  0  0  0  0  0  0  0
  -11.0531   -1.4076   14.4468 C   0  0  0  0  0  0  0  0  0  0  0  0
  -12.9275   -0.7717   17.6056 C   0  0  0  0  0  0  0  0  0  0  0  0
  -13.0016   -1.1808   18.9132 C   0  0  0  0  0  0  0  0  0  0  0  0
  -14.1617   -0.7264   19.4397 N   0  0  0  0  0  0  0  0  0  0  0  0
  -14.6158   -0.9393   20.7907 C   0  0  0  0  0  0  0  0  0  0  0  0
  -14.8103   -0.0526   18.5133 N   0  0  0  0  0  0  0  0  0  0  0  0
  -14.0725   -0.0609   17.3640 C   0  0  0  0  0  0  0  0  0  0  0  0
  2  1  1  6
  2  3  1  0
  2  9  1  0
  3  4  2  0
  3  8  1  0
  4  5  1  0
  5  6  2  0
  6  7  1  0
  7  8  2  0
  9 10  2  0
  9 13  1  0
 10 11  1  0
 11 12  2  0
 11 26  1  0
 12 13  1  0
 12 23  1  0
 14 13  1  1
 14 15  1  0
 15 16  2  0
 15 20  1  0
 17 16  1  6
 16 18  1  0
 18 19  2  0
 19 21  1  0
 20 21  2  0
 22 21  1  6
 23 24  2  0
 24 25  1  0
 24 27  1  0
 25 26  2  0
 27 28  2  0
 27 32  1  0
 28 29  1  0
 30 29  1  6
 29 31  1  0
 31 32  2  0
M  END
$$$$
