
     RDKit          3D

 32 36  0  0  0  0  0  0  0  0999 V2000
    0.0851   -0.4325    8.9423 O   0  0  0  0  0  0  0  0  0  0  0  0
   -0.8484    0.3171    9.6659 C   0  0  2  0  0  0  0  0  0  0  0  0
   -0.0680    1.2617   10.5591 C   0  0  0  0  0  0  0  0  0  0  0  0
   -0.6339    2.3617   11.1071 C   0  0  0  0  0  0  0  0  0  0  0  0
    0.1626    3.1540   11.9145 C   0  0  0  0  0  0  0  0  0  0  0  0
    1.4541    2.8518   12.1527 N   0  0  0  0  0  0  0  0  0  0  0  0
    2.0432    1.7637   11.6203 C   0  0  0  0  0  0  0  0  0  0  0  0
    1.2420    0.9598   10.8036 C   0  0  0  0  0  0  0  0  0  0  0  0
   -1.5679   -0.6260   10.5516 C   0  0  0  0  0  0  0  0  0  0  0  0
   -0.8170   -1.6013   11.1671 N   0  0  0  0  0  0  0  0  0  0  0  0
   -1.6330   -2.2948   11.9429 C   0  0  0  0  0  0  0  0  0  0  0  0
   -2.8872   -1.7567   11.8110 C   0  0  0  0  0  0  0  0  0  0  0  0
   -2.8350   -0.6955   10.9189 N   0  0  0  0  0  0  0  0  0  0  0  0
   -4.0154    0.0510   10.5346 C   0  0  0  0  0  0  0  0  0  0  0  0
   -4.8319    0.6028   11.5977 C   0  0  0  0  0  0  0  0  0  0  0  0
   -6.1318    0.2439   11.8162 C   0  0  0  0  0  0  0  0  0  0  0  0
   -6.9219   -0.6145   10.9561 C   0  0  0  0  0  0  0  0  0  0  0  0
   -6.8445    0.7695   12.9188 C   0  0  0  0  0  0  0  0  0  0  0  0
   -6.2781    1.6470   13.8004 C   0  0  0  0  0  0  0  0  0  0  0  0
   -4.2872    1.5049   12.5202 C   0  0  0  0  0  0  0  0  0  0  0  0
   -4.9928    2.0139   13.5958 C   0  0  0  0  0  0  0  0  0  0  0  0
   -4.3733    2.9650   14.5633 C   0  0  0  0  0  0  0  0  0  0  0  0
   -3.8876   -2.3229   12.5659 C   0  0  0  0  0  0  0  0  0  0  0  0
   -3.6788   -3.3955   13.4338 C   0  0  0  0  0  0  0  0  0  0  0  0
   -2.3926   -3.8858   13.5123 C   0  0  0  0  0  0  0  0  0  0  0  0
   -1.3701   -3.3633   12.7909 C   0  0  0  0  0  0  0  0  0  0  0  0
   -4.7596   -3.9561   14.2246 C   0  0  0  0  0  0  0  0  0  0  0  0
   -6.1027   -3.8135   13.9833 C   0  0  0  0  0  0  0  0  0  0  0  0
   -6.7841   -4.4882   14.9372 N   0  0  0  0  0  0  0  0  0  0  0  0
   -8.2181   -4.5883   15.0387 C   0  0  0  0  0  0  0  0  0  0  0  0
   -5.9196   -5.0433   15.7604 N   0  0  0  0  0  0  0  0  0  0  0  0
   -4.6554   -4.7334   15.3469 C   0  0  0  0  0  0  0  0  0  0  0  0
  2  1  1  6
  2  3  1  0
  2  9  1  0
  3  4  2  0
  3  8  1  0
  4  5  1  0
  5  6  2  0
  6  7  1  0
  7  8  2  0
  9 10  2  0
  9 13  1  0
 10 11  1  0
 11 12  2  0
 11 26  1  0
 12 13  1  0
 12 23  1  0
 14 13  1  1
 14 15  1  0
 15 16  2  0
 15 20  1  0
 17 16  1  6
 16 18  1  0
 18 19  2  0
 19 21  1  0
 20 21  2  0
 22 21  1  6
 23 24  2  0
 24 25  1  0
 24 27  1  0
 25 26  2  0
 27 28  2  0
 27 32  1  0
 28 29  1  0
 30 29  1  6
 29 31  1  0
 31 32  2  0
M  END
$$$$
