
     RDKit          3D

 32 36  0  0  0  0  0  0  0  0999 V2000
   -7.5787    1.5563   17.1445 O   0  0  0  0  0  0  0  0  0  0  0  0
   -8.3788    0.4589   17.4658 C   0  0  2  0  0  0  0  0  0  0  0  0
   -8.5632    0.4416   18.9813 C   0  0  0  0  0  0  0  0  0  0  0  0
   -9.8192    0.3207   19.5252 C   0  0  0  0  0  0  0  0  0  0  0  0
   -9.9149    0.3270   20.9198 C   0  0  0  0  0  0  0  0  0  0  0  0
   -8.8379    0.4460   21.7224 N   0  0  0  0  0  0  0  0  0  0  0  0
   -7.6098    0.5652   21.1967 C   0  0  0  0  0  0  0  0  0  0  0  0
   -7.4814    0.5612   19.8100 C   0  0  0  0  0  0  0  0  0  0  0  0
   -7.6711   -0.7678   17.0525 C   0  0  0  0  0  0  0  0  0  0  0  0
   -6.3731   -1.0411   17.3900 N   0  0  0  0  0  0  0  0  0  0  0  0
   -6.0262   -2.2282   16.9129 C   0  0  0  0  0  0  0  0  0  0  0  0
   -7.0980   -2.7324   16.2612 C   0  0  0  0  0  0  0  0  0  0  0  0
   -8.1149   -1.8000   16.3577 N   0  0  0  0  0  0  0  0  0  0  0  0
   -9.3873   -2.1138   15.7260 C   0  0  0  0  0  0  0  0  0  0  0  0
  -10.3897   -2.5322   16.7256 C   0  0  0  0  0  0  0  0  0  0  0  0
  -11.7303   -2.3032   16.5537 C   0  0  0  0  0  0  0  0  0  0  0  0
  -12.2903   -1.4450   15.4818 C   0  0  0  0  0  0  0  0  0  0  0  0
  -12.6155   -2.8289   17.5092 C   0  0  0  0  0  0  0  0  0  0  0  0
  -12.1653   -3.5462   18.5852 C   0  0  0  0  0  0  0  0  0  0  0  0
   -9.9473   -3.2727   17.8443 C   0  0  0  0  0  0  0  0  0  0  0  0
  -10.8227   -3.7848   18.7797 C   0  0  0  0  0  0  0  0  0  0  0  0
  -10.3539   -4.5720   19.9595 C   0  0  0  0  0  0  0  0  0  0  0  0
   -7.0124   -3.9889   15.6955 C   0  0  0  0  0  0  0  0  0  0  0  0
   -5.8646   -4.7794   15.7528 C   0  0  0  0  0  0  0  0  0  0  0  0
   -4.7777   -4.2565   16.4139 C   0  0  0  0  0  0  0  0  0  0  0  0
   -4.8641   -2.9864   16.9896 C   0  0  0  0  0  0  0  0  0  0  0  0
   -5.8354   -6.1038   15.1438 C   0  0  0  0  0  0  0  0  0  0  0  0
   -4.8750   -7.0923   15.2512 C   0  0  0  0  0  0  0  0  0  0  0  0
   -5.2634   -8.1692   14.5156 N   0  0  0  0  0  0  0  0  0  0  0  0
   -4.5576   -9.4437   14.3442 C   0  0  0  0  0  0  0  0  0  0  0  0
   -6.4179   -7.8553   13.9755 N   0  0  0  0  0  0  0  0  0  0  0  0
   -6.8105   -6.6234   14.3199 C   0  0  0  0  0  0  0  0  0  0  0  0
  2  1  1  1
  2  3  1  0
  2  9  1  0
  3  4  2  0
  3  8  1  0
  4  5  1  0
  5  6  2  0
  6  7  1  0
  7  8  2  0
  9 10  2  0
  9 13  1  0
 10 11  1  0
 11 12  2  0
 11 26  1  0
 12 13  1  0
 12 23  1  0
 13 14  1  0
 14 15  1  0
 15 16  2  0
 15 20  1  0
 16 17  1  0
 16 18  1  0
 18 19  2  0
 19 21  1  0
 20 21  2  0
 21 22  1  0
 23 24  2  0
 24 25  1  0
 24 27  1  0
 25 26  2  0
 27 28  2  0
 27 32  1  0
 28 29  1  0
 29 30  1  0
 29 31  1  0
 31 32  2  0
M  END
$$$$
