
     RDKit          3D

 32 36  0  0  0  0  0  0  0  0999 V2000
   -7.6180   -2.2052   12.2621 O   0  0  0  0  0  0  0  0  0  0  0  0
   -7.1941   -1.3787   13.3081 C   0  0  2  0  0  0  0  0  0  0  0  0
   -5.6787   -1.4255   13.3293 C   0  0  0  0  0  0  0  0  0  0  0  0
   -4.9376   -0.4196   13.8483 C   0  0  0  0  0  0  0  0  0  0  0  0
   -3.5618   -0.5638   13.8268 C   0  0  0  0  0  0  0  0  0  0  0  0
   -2.9714   -1.6597   13.3106 N   0  0  0  0  0  0  0  0  0  0  0  0
   -3.6841   -2.6758   12.7872 C   0  0  0  0  0  0  0  0  0  0  0  0
   -5.0751   -2.5344   12.8069 C   0  0  0  0  0  0  0  0  0  0  0  0
   -7.6670   -1.9970   14.5673 C   0  0  0  0  0  0  0  0  0  0  0  0
   -6.7089   -2.3339   15.4961 N   0  0  0  0  0  0  0  0  0  0  0  0
   -7.3391   -2.8171   16.5535 C   0  0  0  0  0  0  0  0  0  0  0  0
   -8.6833   -2.7841   16.2858 C   0  0  0  0  0  0  0  0  0  0  0  0
   -8.8811   -2.2627   15.0154 N   0  0  0  0  0  0  0  0  0  0  0  0
  -10.1982   -2.1429   14.4246 C   0  0  0  0  0  0  0  0  0  0  0  0
  -11.0012   -0.9991   14.8098 C   0  0  0  0  0  0  0  0  0  0  0  0
  -12.0427   -0.5219   14.0657 C   0  0  0  0  0  0  0  0  0  0  0  0
  -12.4086   -0.9821   12.7408 C   0  0  0  0  0  0  0  0  0  0  0  0
  -12.8291    0.5535   14.5406 C   0  0  0  0  0  0  0  0  0  0  0  0
  -12.5873    1.1567   15.7429 C   0  0  0  0  0  0  0  0  0  0  0  0
  -10.7832   -0.3544   16.0339 C   0  0  0  0  0  0  0  0  0  0  0  0
  -11.5578    0.6972   16.4898 C   0  0  0  0  0  0  0  0  0  0  0  0
  -11.3004    1.3509   17.8053 C   0  0  0  0  0  0  0  0  0  0  0  0
   -9.5250   -3.2222   17.2812 C   0  0  0  0  0  0  0  0  0  0  0  0
   -9.0732   -3.6879   18.5166 C   0  0  0  0  0  0  0  0  0  0  0  0
   -7.7087   -3.6948   18.7133 C   0  0  0  0  0  0  0  0  0  0  0  0
   -6.8355   -3.2724   17.7655 C   0  0  0  0  0  0  0  0  0  0  0  0
   -9.9957   -4.1288   19.5473 C   0  0  0  0  0  0  0  0  0  0  0  0
  -11.3405   -3.8621   19.6035 C   0  0  0  0  0  0  0  0  0  0  0  0
  -11.8491   -4.4521   20.7093 N   0  0  0  0  0  0  0  0  0  0  0  0
  -13.2271   -4.4125   21.1288 C   0  0  0  0  0  0  0  0  0  0  0  0
  -10.8759   -5.0737   21.3414 N   0  0  0  0  0  0  0  0  0  0  0  0
   -9.7135   -4.8936   20.6474 C   0  0  0  0  0  0  0  0  0  0  0  0
  2  1  1  6
  2  3  1  0
  2  9  1  0
  3  4  2  0
  3  8  1  0
  4  5  1  0
  5  6  2  0
  6  7  1  0
  7  8  2  0
  9 10  2  0
  9 13  1  0
 10 11  1  0
 11 12  2  0
 11 26  1  0
 12 13  1  0
 12 23  1  0
 14 13  1  1
 14 15  1  0
 15 16  2  0
 15 20  1  0
 17 16  1  6
 16 18  1  0
 18 19  2  0
 19 21  1  0
 20 21  2  0
 22 21  1  6
 23 24  2  0
 24 25  1  0
 24 27  1  0
 25 26  2  0
 27 28  2  0
 27 32  1  0
 28 29  1  0
 30 29  1  6
 29 31  1  0
 31 32  2  0
M  END
$$$$
