
     RDKit          3D

 32 36  0  0  0  0  0  0  0  0999 V2000
   -8.1067   -1.0778   18.1331 O   0  0  0  0  0  0  0  0  0  0  0  0
   -8.0641   -1.8616   16.9752 C   0  0  2  0  0  0  0  0  0  0  0  0
   -7.9516   -3.3075   17.4175 C   0  0  0  0  0  0  0  0  0  0  0  0
   -7.4476   -4.2675   16.6083 C   0  0  0  0  0  0  0  0  0  0  0  0
   -7.3804   -5.5549   17.1105 C   0  0  0  0  0  0  0  0  0  0  0  0
   -7.7984   -5.8530   18.3565 N   0  0  0  0  0  0  0  0  0  0  0  0
   -8.3046   -4.9178   19.1833 C   0  0  0  0  0  0  0  0  0  0  0  0
   -8.3744   -3.6151   18.6798 C   0  0  0  0  0  0  0  0  0  0  0  0
   -6.8079   -1.5226   16.2690 C   0  0  0  0  0  0  0  0  0  0  0  0
   -5.6295   -1.8695   16.8895 N   0  0  0  0  0  0  0  0  0  0  0  0
   -4.6426   -1.5286   16.0779 C   0  0  0  0  0  0  0  0  0  0  0  0
   -5.2017   -0.9700   14.9576 C   0  0  0  0  0  0  0  0  0  0  0  0
   -6.5826   -0.9679   15.0914 N   0  0  0  0  0  0  0  0  0  0  0  0
   -7.4564   -0.3978   14.0866 C   0  0  0  0  0  0  0  0  0  0  0  0
   -7.5950   -1.1178   12.8361 C   0  0  0  0  0  0  0  0  0  0  0  0
   -7.7080   -0.5056   11.6201 C   0  0  0  0  0  0  0  0  0  0  0  0
   -7.8473    0.9215   11.4080 C   0  0  0  0  0  0  0  0  0  0  0  0
   -7.7655   -1.2736   10.4339 C   0  0  0  0  0  0  0  0  0  0  0  0
   -7.7144   -2.6393   10.4477 C   0  0  0  0  0  0  0  0  0  0  0  0
   -7.5480   -2.5173   12.8099 C   0  0  0  0  0  0  0  0  0  0  0  0
   -7.6054   -3.2599   11.6442 C   0  0  0  0  0  0  0  0  0  0  0  0
   -7.5413   -4.7498   11.6572 C   0  0  0  0  0  0  0  0  0  0  0  0
   -4.3365   -0.5701   13.9662 C   0  0  0  0  0  0  0  0  0  0  0  0
   -2.9508   -0.7060   14.0579 C   0  0  0  0  0  0  0  0  0  0  0  0
   -2.4606   -1.2738   15.2147 C   0  0  0  0  0  0  0  0  0  0  0  0
   -3.2699   -1.6862   16.2217 C   0  0  0  0  0  0  0  0  0  0  0  0
   -2.0719   -0.2839   12.9822 C   0  0  0  0  0  0  0  0  0  0  0  0
   -2.2042   -0.5978   11.6531 C   0  0  0  0  0  0  0  0  0  0  0  0
   -1.1944   -0.0108   10.9710 N   0  0  0  0  0  0  0  0  0  0  0  0
   -0.9764   -0.0939    9.5490 C   0  0  0  0  0  0  0  0  0  0  0  0
   -0.4412    0.6541   11.8216 N   0  0  0  0  0  0  0  0  0  0  0  0
   -0.9575    0.5060   13.0772 C   0  0  0  0  0  0  0  0  0  0  0  0
  2  1  1  1
  2  3  1  0
  2  9  1  0
  3  4  2  0
  3  8  1  0
  4  5  1  0
  5  6  2  0
  6  7  1  0
  7  8  2  0
  9 10  2  0
  9 13  1  0
 10 11  1  0
 11 12  2  0
 11 26  1  0
 12 13  1  0
 12 23  1  0
 14 13  1  1
 14 15  1  0
 15 16  2  0
 15 20  1  0
 17 16  1  6
 16 18  1  0
 18 19  2  0
 19 21  1  0
 20 21  2  0
 22 21  1  6
 23 24  2  0
 24 25  1  0
 24 27  1  0
 25 26  2  0
 27 28  2  0
 27 32  1  0
 28 29  1  0
 30 29  1  6
 29 31  1  0
 31 32  2  0
M  END
$$$$
