
     RDKit          3D

 32 36  0  0  0  0  0  0  0  0999 V2000
  -12.8590   -0.8039   15.3379 O   0  0  0  0  0  0  0  0  0  0  0  0
  -12.0613   -0.8291   16.4868 C   0  0  2  0  0  0  0  0  0  0  0  0
  -11.8477    0.6097   16.9149 C   0  0  0  0  0  0  0  0  0  0  0  0
  -11.6255    1.5987   16.0188 C   0  0  0  0  0  0  0  0  0  0  0  0
  -11.4512    2.8795   16.5122 C   0  0  0  0  0  0  0  0  0  0  0  0
  -11.4983    3.1435   17.8329 N   0  0  0  0  0  0  0  0  0  0  0  0
  -11.7173    2.1787   18.7470 C   0  0  0  0  0  0  0  0  0  0  0  0
  -11.8941    0.8826   18.2529 C   0  0  0  0  0  0  0  0  0  0  0  0
  -10.7411   -1.3653   16.0855 C   0  0  0  0  0  0  0  0  0  0  0  0
  -10.5022   -1.4916   14.7360 N   0  0  0  0  0  0  0  0  0  0  0  0
   -9.2637   -1.9333   14.5956 C   0  0  0  0  0  0  0  0  0  0  0  0
   -8.7326   -2.0839   15.8506 C   0  0  0  0  0  0  0  0  0  0  0  0
   -9.6843   -1.7223   16.7932 N   0  0  0  0  0  0  0  0  0  0  0  0
   -9.4376   -1.8173   18.2175 C   0  0  0  0  0  0  0  0  0  0  0  0
  -10.0144   -2.9458   18.9211 C   0  0  0  0  0  0  0  0  0  0  0  0
   -9.4146   -4.1702   19.0059 C   0  0  0  0  0  0  0  0  0  0  0  0
   -8.2091   -4.5653   18.3048 C   0  0  0  0  0  0  0  0  0  0  0  0
  -10.0015   -5.2040   19.7722 C   0  0  0  0  0  0  0  0  0  0  0  0
  -11.1759   -5.0311   20.4496 C   0  0  0  0  0  0  0  0  0  0  0  0
  -11.2165   -2.8078   19.6263 C   0  0  0  0  0  0  0  0  0  0  0  0
  -11.7830   -3.8252   20.3731 C   0  0  0  0  0  0  0  0  0  0  0  0
  -13.0600   -3.6353   21.1196 C   0  0  0  0  0  0  0  0  0  0  0  0
   -7.4278   -2.5119   15.9248 C   0  0  0  0  0  0  0  0  0  0  0  0
   -6.6487   -2.7926   14.8017 C   0  0  0  0  0  0  0  0  0  0  0  0
   -7.2505   -2.6211   13.5732 C   0  0  0  0  0  0  0  0  0  0  0  0
   -8.5332   -2.2001   13.4445 C   0  0  0  0  0  0  0  0  0  0  0  0
   -5.2693   -3.2291   14.9222 C   0  0  0  0  0  0  0  0  0  0  0  0
   -4.4104   -2.9362   15.9515 C   0  0  0  0  0  0  0  0  0  0  0  0
   -3.2218   -3.5311   15.7009 N   0  0  0  0  0  0  0  0  0  0  0  0
   -2.0534   -3.4696   16.5422 C   0  0  0  0  0  0  0  0  0  0  0  0
   -3.3075   -4.1808   14.5592 N   0  0  0  0  0  0  0  0  0  0  0  0
   -4.5639   -4.0145   14.0503 C   0  0  0  0  0  0  0  0  0  0  0  0
  2  1  1  6
  2  3  1  0
  2  9  1  0
  3  4  2  0
  3  8  1  0
  4  5  1  0
  5  6  2  0
  6  7  1  0
  7  8  2  0
  9 10  2  0
  9 13  1  0
 10 11  1  0
 11 12  2  0
 11 26  1  0
 12 13  1  0
 12 23  1  0
 14 13  1  1
 14 15  1  0
 15 16  2  0
 15 20  1  0
 17 16  1  6
 16 18  1  0
 18 19  2  0
 19 21  1  0
 20 21  2  0
 22 21  1  6
 23 24  2  0
 24 25  1  0
 24 27  1  0
 25 26  2  0
 27 28  2  0
 27 32  1  0
 28 29  1  0
 30 29  1  6
 29 31  1  0
 31 32  2  0
M  END
$$$$
