
     RDKit          3D

 25 27  0  0  0  0  0  0  0  0999 V2000
   -7.5302  -12.8492   -6.7844 O   0  0  0  0  0  0  0  0  0  0  0  0
   -6.6408  -12.1166   -7.2399 C   0  0  0  0  0  0  0  0  0  0  0  0
   -5.4678  -12.7440   -7.9443 C   0  0  0  0  0  0  0  0  0  0  0  0
   -6.7576  -10.7200   -7.0833 N   0  0  0  0  0  0  0  0  0  0  0  0
   -7.8615  -10.0217   -6.4776 C   0  0  0  0  0  0  0  0  0  0  0  0
   -7.3021   -8.9814   -5.5701 C   0  0  0  0  0  0  0  0  0  0  0  0
   -8.0613   -8.0254   -4.9403 C   0  0  0  0  0  0  0  0  0  0  0  0
   -7.4799   -7.0704   -4.1093 C   0  0  0  0  0  0  0  0  0  0  0  0
   -6.1238   -7.0474   -3.8867 C   0  0  0  0  0  0  0  0  0  0  0  0
   -5.4526   -6.0741   -3.0305 C   0  0  0  0  0  0  0  0  0  0  0  0
   -4.7663   -5.0034   -3.4976 C   0  0  0  0  0  0  0  0  0  0  0  0
   -4.1230   -4.0705   -2.6785 C   0  0  0  0  0  0  0  0  0  0  0  0
   -3.4089   -2.9382   -3.2735 C   0  0  1  0  0  0  0  0  0  0  0  0
   -2.1960   -3.3331   -4.0288 C   0  0  0  0  0  0  0  0  0  0  0  0
   -1.0807   -3.9135   -3.3188 N   0  0  0  0  0  0  0  0  0  0  0  0
   -2.0426   -3.1984   -5.2796 N   0  0  0  0  0  4  0  0  0  0  0  0
   -4.2841   -2.0629   -4.1565 C   0  0  0  0  0  0  0  0  0  0  0  0
   -3.4165   -0.8765   -3.6489 C   0  0  0  0  0  0  0  0  0  0  0  0
   -3.2361   -1.7426   -2.3865 C   0  0  0  0  0  0  0  0  0  0  0  0
   -4.2048   -4.2710   -1.3272 C   0  0  0  0  0  0  0  0  0  0  0  0
   -4.9073   -5.3692   -0.8127 C   0  0  0  0  0  0  0  0  0  0  0  0
   -4.9885   -5.5926    0.9419 Cl  0  0  0  0  0  0  0  0  0  0  0  0
   -5.5188   -6.2517   -1.6660 C   0  0  0  0  0  0  0  0  0  0  0  0
   -5.3776   -8.0103   -4.5234 C   0  0  0  0  0  0  0  0  0  0  0  0
   -5.9347   -8.9608   -5.3474 C   0  0  0  0  0  0  0  0  0  0  0  0
  1  2  2  0
  3  2  1  1
  2  4  1  0
  5  4  1  6
  5  6  1  0
  6 25  2  0
  6  7  1  0
  7  8  2  0
  8  9  1  0
  9 10  1  0
  9 24  2  0
 10 23  1  0
 10 11  2  0
 11 12  1  0
 13 12  1  1
 12 20  2  0
 13 19  1  0
 13 14  1  0
 17 13  1  6
 14 15  1  0
 14 16  2  3
 18 17  1  6
 19 18  1  1
 20 21  1  0
 21 22  1  0
 21 23  2  0
 24 25  1  0
M  CHG  1  16   1
M  END
$$$$
