
     RDKit          3D

 25 27  0  0  0  0  0  0  0  0999 V2000
   10.3384  -22.8002   10.8867 O   0  0  0  0  0  0  0  0  0  0  0  0
   10.6067  -21.6447   11.2443 C   0  0  0  0  0  0  0  0  0  0  0  0
   12.0499  -21.2357   11.3697 C   0  0  0  0  0  0  0  0  0  0  0  0
    9.5510  -20.7516   11.5216 N   0  0  0  0  0  0  0  0  0  0  0  0
    8.1443  -21.0501   11.4513 C   0  0  0  0  0  0  0  0  0  0  0  0
    7.4056  -19.7586   11.3812 C   0  0  0  0  0  0  0  0  0  0  0  0
    6.8605  -19.2493   10.2277 C   0  0  0  0  0  0  0  0  0  0  0  0
    6.1881  -18.0292   10.2217 C   0  0  0  0  0  0  0  0  0  0  0  0
    6.0433  -17.2874   11.3697 C   0  0  0  0  0  0  0  0  0  0  0  0
    5.3531  -16.0026   11.4308 C   0  0  0  0  0  0  0  0  0  0  0  0
    5.6899  -15.0038   12.2820 C   0  0  0  0  0  0  0  0  0  0  0  0
    5.0294  -13.7728   12.3414 C   0  0  0  0  0  0  0  0  0  0  0  0
    5.4686  -12.7476   13.2913 C   0  0  1  0  0  0  0  0  0  0  0  0
    4.9491  -12.9507   14.6647 C   0  0  0  0  0  0  0  0  0  0  0  0
    4.4698  -14.2565   15.0517 N   0  0  0  0  0  0  0  0  0  0  0  0
    4.8805  -12.0525   15.5562 N   0  0  0  0  0  4  0  0  0  0  0  0
    6.9785  -12.5779   13.3485 C   0  0  0  0  0  0  0  0  0  0  0  0
    6.6875  -11.0724   13.6068 C   0  0  0  0  0  0  0  0  0  0  0  0
    5.4026  -11.3346   12.7963 C   0  0  0  0  0  0  0  0  0  0  0  0
    3.9830  -13.5880   11.4789 C   0  0  0  0  0  0  0  0  0  0  0  0
    3.6099  -14.6022   10.5863 C   0  0  0  0  0  0  0  0  0  0  0  0
    2.2500  -14.3229    9.4874 Cl  0  0  0  0  0  0  0  0  0  0  0  0
    4.2958  -15.7897   10.5737 C   0  0  0  0  0  0  0  0  0  0  0  0
    6.5937  -17.8102   12.5156 C   0  0  0  0  0  0  0  0  0  0  0  0
    7.2611  -19.0130   12.5401 C   0  0  0  0  0  0  0  0  0  0  0  0
  1  2  2  0
  3  2  1  1
  2  4  1  0
  5  4  1  6
  5  6  1  0
  6 25  2  0
  6  7  1  0
  7  8  2  0
  8  9  1  0
  9 10  1  0
  9 24  2  0
 10 23  1  0
 10 11  2  0
 11 12  1  0
 13 12  1  6
 12 20  2  0
 13 19  1  0
 13 14  1  0
 17 13  1  6
 14 15  1  0
 14 16  2  3
 18 17  1  6
 19 18  1  1
 20 21  1  0
 21 22  1  0
 21 23  2  0
 24 25  1  0
M  CHG  1  16   1
M  END
$$$$
