
     RDKit          3D

 25 27  0  0  0  0  0  0  0  0999 V2000
    8.3507   -4.4954   -6.5953 O   0  0  0  0  0  0  0  0  0  0  0  0
    8.3467   -3.9974   -5.4608 C   0  0  0  0  0  0  0  0  0  0  0  0
    7.2445   -3.0431   -5.0863 C   0  0  0  0  0  0  0  0  0  0  0  0
    9.3746   -4.3416   -4.5587 N   0  0  0  0  0  0  0  0  0  0  0  0
   10.4871   -5.2143   -4.8301 C   0  0  0  0  0  0  0  0  0  0  0  0
   11.0986   -5.5949   -3.5264 C   0  0  0  0  0  0  0  0  0  0  0  0
   10.4910   -5.4022   -2.3096 C   0  0  0  0  0  0  0  0  0  0  0  0
   11.1174   -5.7700   -1.1209 C   0  0  0  0  0  0  0  0  0  0  0  0
   12.3678   -6.3405   -1.1189 C   0  0  0  0  0  0  0  0  0  0  0  0
   13.0791   -6.7461    0.0896 C   0  0  0  0  0  0  0  0  0  0  0  0
   12.7309   -7.8126    0.8491 C   0  0  0  0  0  0  0  0  0  0  0  0
   13.4114   -8.2019    2.0069 C   0  0  0  0  0  0  0  0  0  0  0  0
   12.9659   -9.3754    2.7624 C   0  0  1  0  0  0  0  0  0  0  0  0
   13.9411  -10.4917    2.7528 C   0  0  0  0  0  0  0  0  0  0  0  0
   15.3462  -10.2024    2.9162 N   0  0  0  0  0  0  0  0  0  0  0  0
   13.6444  -11.7149    2.6042 N   0  0  0  0  0  4  0  0  0  0  0  0
   12.5785   -9.0629    4.1991 C   0  0  0  0  0  0  0  0  0  0  0  0
   11.5066  -10.1773    4.0347 C   0  0  0  0  0  0  0  0  0  0  0  0
   11.5404   -9.7834    2.5447 C   0  0  0  0  0  0  0  0  0  0  0  0
   14.4907   -7.4456    2.3760 C   0  0  0  0  0  0  0  0  0  0  0  0
   14.8761   -6.3361    1.6113 C   0  0  0  0  0  0  0  0  0  0  0  0
   16.2780   -5.3838    2.1238 Cl  0  0  0  0  0  0  0  0  0  0  0  0
   14.1694   -6.0023    0.4843 C   0  0  0  0  0  0  0  0  0  0  0  0
   12.9627   -6.5271   -2.3438 C   0  0  0  0  0  0  0  0  0  0  0  0
   12.3593   -6.1700   -3.5275 C   0  0  0  0  0  0  0  0  0  0  0  0
  1  2  2  0
  3  2  1  1
  2  4  1  0
  5  4  1  6
  5  6  1  0
  6 25  2  0
  6  7  1  0
  7  8  2  0
  8  9  1  0
  9 10  1  0
  9 24  2  0
 10 23  1  0
 10 11  2  0
 11 12  1  0
 13 12  1  6
 12 20  2  0
 13 19  1  0
 13 14  1  0
 17 13  1  6
 14 15  1  0
 14 16  2  3
 18 17  1  6
 19 18  1  1
 20 21  1  0
 21 22  1  0
 21 23  2  0
 24 25  1  0
M  CHG  1  16   1
M  END
$$$$
