
     RDKit          3D

 25 27  0  0  0  0  0  0  0  0999 V2000
    9.8394  -11.9667   16.4311 O   0  0  0  0  0  0  0  0  0  0  0  0
    9.8711  -11.7361   15.2142 C   0  0  0  0  0  0  0  0  0  0  0  0
   10.8213  -10.6911   14.6937 C   0  0  0  0  0  0  0  0  0  0  0  0
    9.0163  -12.4604   14.3578 N   0  0  0  0  0  0  0  0  0  0  0  0
    8.0982  -13.4974   14.7512 C   0  0  0  0  0  0  0  0  0  0  0  0
    7.4487  -14.0250   13.5190 C   0  0  0  0  0  0  0  0  0  0  0  0
    7.3996  -15.3576   13.1892 C   0  0  0  0  0  0  0  0  0  0  0  0
    6.7859  -15.7913   12.0162 C   0  0  0  0  0  0  0  0  0  0  0  0
    6.2051  -14.9029   11.1430 C   0  0  0  0  0  0  0  0  0  0  0  0
    5.5488  -15.2911    9.8982 C   0  0  0  0  0  0  0  0  0  0  0  0
    6.1812  -15.9088    8.8715 C   0  0  0  0  0  0  0  0  0  0  0  0
    5.5536  -16.2811    7.6787 C   0  0  0  0  0  0  0  0  0  0  0  0
    6.3176  -16.9520    6.6240 C   0  0  1  0  0  0  0  0  0  0  0  0
    7.5298  -16.2083    6.2058 C   0  0  0  0  0  0  0  0  0  0  0  0
    7.4719  -15.3669    5.0338 N   0  0  0  0  0  0  0  0  0  0  0  0
    8.6489  -16.2498    6.7992 N   0  0  0  0  0  4  0  0  0  0  0  0
    6.7028  -18.3822    6.9676 C   0  0  0  0  0  0  0  0  0  0  0  0
    6.5251  -18.6761    5.4510 C   0  0  0  0  0  0  0  0  0  0  0  0
    5.5075  -17.5190    5.4978 C   0  0  0  0  0  0  0  0  0  0  0  0
    4.2204  -15.9945    7.5637 C   0  0  0  0  0  0  0  0  0  0  0  0
    3.5378  -15.3560    8.6080 C   0  0  0  0  0  0  0  0  0  0  0  0
    1.8132  -15.0027    8.4187 Cl  0  0  0  0  0  0  0  0  0  0  0  0
    4.2068  -15.0145    9.7555 C   0  0  0  0  0  0  0  0  0  0  0  0
    6.2620  -13.5733   11.4867 C   0  0  0  0  0  0  0  0  0  0  0  0
    6.8639  -13.1270   12.6406 C   0  0  0  0  0  0  0  0  0  0  0  0
  1  2  2  0
  3  2  1  1
  2  4  1  0
  5  4  1  6
  5  6  1  0
  6 25  2  0
  6  7  1  0
  7  8  2  0
  8  9  1  0
  9 10  1  0
  9 24  2  0
 10 23  1  0
 10 11  2  0
 11 12  1  0
 13 12  1  1
 12 20  2  0
 13 19  1  0
 13 14  1  0
 17 13  1  6
 14 15  1  0
 14 16  2  3
 18 17  1  6
 19 18  1  1
 20 21  1  0
 21 22  1  0
 21 23  2  0
 24 25  1  0
M  CHG  1  16   1
M  END
$$$$
