
     RDKit          3D

 25 27  0  0  0  0  0  0  0  0999 V2000
    3.6841  -17.6872    3.6687 O   0  0  0  0  0  0  0  0  0  0  0  0
    4.6091  -18.0773    4.3948 C   0  0  0  0  0  0  0  0  0  0  0  0
    5.5705  -19.1062    3.8629 C   0  0  0  0  0  0  0  0  0  0  0  0
    4.7303  -17.5442    5.6947 N   0  0  0  0  0  0  0  0  0  0  0  0
    3.8301  -16.6087    6.3172 C   0  0  0  0  0  0  0  0  0  0  0  0
    4.3333  -16.3355    7.6923 C   0  0  0  0  0  0  0  0  0  0  0  0
    5.4490  -16.9281    8.2318 C   0  0  0  0  0  0  0  0  0  0  0  0
    5.8663  -16.6401    9.5294 C   0  0  0  0  0  0  0  0  0  0  0  0
    5.1782  -15.7514   10.3206 C   0  0  0  0  0  0  0  0  0  0  0  0
    5.5606  -15.4079   11.6868 C   0  0  0  0  0  0  0  0  0  0  0  0
    5.9951  -14.1813   12.0640 C   0  0  0  0  0  0  0  0  0  0  0  0
    6.3617  -13.8512   13.3723 C   0  0  0  0  0  0  0  0  0  0  0  0
    6.8146  -12.4944   13.6891 C   0  0  1  0  0  0  0  0  0  0  0  0
    5.8209  -11.7006   14.4505 C   0  0  0  0  0  0  0  0  0  0  0  0
    5.2048  -12.2778   15.6218 N   0  0  0  0  0  0  0  0  0  0  0  0
    5.4475  -10.5263   14.1541 N   0  0  0  0  0  4  0  0  0  0  0  0
    8.1496  -12.4526   14.4156 C   0  0  0  0  0  0  0  0  0  0  0  0
    8.4059  -11.1319   13.6360 C   0  0  0  0  0  0  0  0  0  0  0  0
    7.4845  -11.7569   12.5697 C   0  0  0  0  0  0  0  0  0  0  0  0
    6.2680  -14.8422   14.3115 C   0  0  0  0  0  0  0  0  0  0  0  0
    5.8221  -16.1216   13.9529 C   0  0  0  0  0  0  0  0  0  0  0  0
    5.7159  -17.3756   15.1984 Cl  0  0  0  0  0  0  0  0  0  0  0  0
    5.4760  -16.3866   12.6526 C   0  0  0  0  0  0  0  0  0  0  0  0
    4.0644  -15.1666    9.7668 C   0  0  0  0  0  0  0  0  0  0  0  0
    3.6377  -15.4391    8.4876 C   0  0  0  0  0  0  0  0  0  0  0  0
  1  2  2  0
  3  2  1  1
  2  4  1  0
  5  4  1  6
  5  6  1  0
  6 25  2  0
  6  7  1  0
  7  8  2  0
  8  9  1  0
  9 10  1  0
  9 24  2  0
 10 23  1  0
 10 11  2  0
 11 12  1  0
 13 12  1  6
 12 20  2  0
 13 19  1  0
 13 14  1  0
 17 13  1  6
 14 15  1  0
 14 16  2  3
 18 17  1  6
 19 18  1  1
 20 21  1  0
 21 22  1  0
 21 23  2  0
 24 25  1  0
M  CHG  1  16   1
M  END
$$$$
