
     RDKit          3D

 25 27  0  0  0  0  0  0  0  0999 V2000
    7.8403   -1.4420   -3.2288 O   0  0  0  0  0  0  0  0  0  0  0  0
    7.4087   -2.0943   -4.1897 C   0  0  0  0  0  0  0  0  0  0  0  0
    6.0917   -1.7034   -4.8048 C   0  0  0  0  0  0  0  0  0  0  0  0
    8.1658   -3.1807   -4.6747 N   0  0  0  0  0  0  0  0  0  0  0  0
    9.4349   -3.6284   -4.1629 C   0  0  0  0  0  0  0  0  0  0  0  0
    9.6675   -5.0120   -4.6629 C   0  0  0  0  0  0  0  0  0  0  0  0
    8.8718   -5.6342   -5.5939 C   0  0  0  0  0  0  0  0  0  0  0  0
    9.1336   -6.9355   -6.0167 C   0  0  0  0  0  0  0  0  0  0  0  0
   10.1985   -7.6479   -5.5191 C   0  0  0  0  0  0  0  0  0  0  0  0
   10.5262   -9.0133   -5.9179 C   0  0  0  0  0  0  0  0  0  0  0  0
   11.7570   -9.4067   -6.3252 C   0  0  0  0  0  0  0  0  0  0  0  0
   12.0720  -10.7143   -6.7075 C   0  0  0  0  0  0  0  0  0  0  0  0
   13.4346  -11.0496   -7.1283 C   0  0  1  0  0  0  0  0  0  0  0  0
   14.2809  -11.5766   -6.0313 C   0  0  0  0  0  0  0  0  0  0  0  0
   14.0435  -11.1282   -4.6795 N   0  0  0  0  0  0  0  0  0  0  0  0
   15.2270  -12.4069   -6.1779 N   0  0  0  0  0  4  0  0  0  0  0  0
   13.4888  -12.0095   -8.3061 C   0  0  0  0  0  0  0  0  0  0  0  0
   14.7659  -11.2336   -8.7361 C   0  0  0  0  0  0  0  0  0  0  0  0
   14.1058  -10.0430   -8.0127 C   0  0  0  0  0  0  0  0  0  0  0  0
   11.0606  -11.6351   -6.6595 C   0  0  0  0  0  0  0  0  0  0  0  0
    9.7763  -11.2595   -6.2427 C   0  0  0  0  0  0  0  0  0  0  0  0
    8.4959  -12.4815   -6.1955 Cl  0  0  0  0  0  0  0  0  0  0  0  0
    9.5269   -9.9608   -5.8793 C   0  0  0  0  0  0  0  0  0  0  0  0
   10.9854   -7.0120   -4.5887 C   0  0  0  0  0  0  0  0  0  0  0  0
   10.7419   -5.7277   -4.1596 C   0  0  0  0  0  0  0  0  0  0  0  0
  1  2  2  0
  3  2  1  1
  2  4  1  0
  5  4  1  6
  5  6  1  0
  6 25  2  0
  6  7  1  0
  7  8  2  0
  8  9  1  0
  9 10  1  0
  9 24  2  0
 10 23  1  0
 10 11  2  0
 11 12  1  0
 13 12  1  1
 12 20  2  0
 13 19  1  0
 13 14  1  0
 17 13  1  6
 14 15  1  0
 14 16  2  3
 18 17  1  6
 19 18  1  1
 20 21  1  0
 21 22  1  0
 21 23  2  0
 24 25  1  0
M  CHG  1  16   1
M  END
$$$$
