
     RDKit          3D

 25 27  0  0  0  0  0  0  0  0999 V2000
   11.0237   -7.2581    6.2171 O   0  0  0  0  0  0  0  0  0  0  0  0
   10.0627   -7.1110    6.9852 C   0  0  0  0  0  0  0  0  0  0  0  0
    9.3802   -5.7710    7.0524 C   0  0  0  0  0  0  0  0  0  0  0  0
    9.6407   -8.2038    7.7704 N   0  0  0  0  0  0  0  0  0  0  0  0
   10.2672   -9.4986    7.8321 C   0  0  0  0  0  0  0  0  0  0  0  0
    9.3839  -10.3968    8.6269 C   0  0  0  0  0  0  0  0  0  0  0  0
    8.1131  -10.0632    9.0276 C   0  0  0  0  0  0  0  0  0  0  0  0
    7.3364  -10.9422    9.7792 C   0  0  0  0  0  0  0  0  0  0  0  0
    7.8112  -12.1779   10.1490 C   0  0  0  0  0  0  0  0  0  0  0  0
    7.0505  -13.1434   10.9364 C   0  0  0  0  0  0  0  0  0  0  0  0
    7.1320  -13.2503   12.2846 C   0  0  0  0  0  0  0  0  0  0  0  0
    6.4039  -14.1747   13.0399 C   0  0  0  0  0  0  0  0  0  0  0  0
    6.5519  -14.2133   14.4969 C   0  0  1  0  0  0  0  0  0  0  0  0
    7.6365  -15.1120   14.9589 C   0  0  0  0  0  0  0  0  0  0  0  0
    7.4473  -16.5416   14.8855 N   0  0  0  0  0  0  0  0  0  0  0  0
    8.7473  -14.7271   15.4323 N   0  0  0  0  0  4  0  0  0  0  0  0
    6.7379  -12.8417   15.1262 C   0  0  0  0  0  0  0  0  0  0  0  0
    5.9378  -13.4099   16.3324 C   0  0  0  0  0  0  0  0  0  0  0  0
    5.2755  -14.3158   15.2754 C   0  0  0  0  0  0  0  0  0  0  0  0
    5.5651  -15.0116   12.3552 C   0  0  0  0  0  0  0  0  0  0  0  0
    5.4585  -14.9261   10.9603 C   0  0  0  0  0  0  0  0  0  0  0  0
    4.3620  -16.0279   10.1126 Cl  0  0  0  0  0  0  0  0  0  0  0  0
    6.1984  -13.9984   10.2726 C   0  0  0  0  0  0  0  0  0  0  0  0
    9.0840  -12.4974    9.7404 C   0  0  0  0  0  0  0  0  0  0  0  0
    9.8651  -11.6420    8.9981 C   0  0  0  0  0  0  0  0  0  0  0  0
  1  2  2  0
  3  2  1  1
  2  4  1  0
  5  4  1  6
  5  6  1  0
  6 25  2  0
  6  7  1  0
  7  8  2  0
  8  9  1  0
  9 10  1  0
  9 24  2  0
 10 23  1  0
 10 11  2  0
 11 12  1  0
 13 12  1  6
 12 20  2  0
 13 19  1  0
 13 14  1  0
 17 13  1  6
 14 15  1  0
 14 16  2  3
 18 17  1  6
 19 18  1  1
 20 21  1  0
 21 22  1  0
 21 23  2  0
 24 25  1  0
M  CHG  1  16   1
M  END
$$$$
