
     RDKit          3D

 25 27  0  0  0  0  0  0  0  0999 V2000
   14.1663   -9.4104    7.2532 O   0  0  0  0  0  0  0  0  0  0  0  0
   13.1771   -9.1392    7.9483 C   0  0  0  0  0  0  0  0  0  0  0  0
   12.9843   -7.7238    8.4229 C   0  0  0  0  0  0  0  0  0  0  0  0
   12.2653  -10.1654    8.2710 N   0  0  0  0  0  0  0  0  0  0  0  0
   12.3885  -11.5551    7.9152 C   0  0  0  0  0  0  0  0  0  0  0  0
   11.2174  -12.2785    8.4840 C   0  0  0  0  0  0  0  0  0  0  0  0
   10.2032  -11.6671    9.1801 C   0  0  0  0  0  0  0  0  0  0  0  0
    9.1367  -12.3985    9.6981 C   0  0  0  0  0  0  0  0  0  0  0  0
    9.0571  -13.7606    9.5326 C   0  0  0  0  0  0  0  0  0  0  0  0
    7.9694  -14.5846   10.0511 C   0  0  0  0  0  0  0  0  0  0  0  0
    6.6697  -14.4264    9.7030 C   0  0  0  0  0  0  0  0  0  0  0  0
    5.6270  -15.2151   10.1990 C   0  0  0  0  0  0  0  0  0  0  0  0
    4.2502  -14.9748    9.7600 C   0  0  1  0  0  0  0  0  0  0  0  0
    3.4573  -14.1625   10.7134 C   0  0  0  0  0  0  0  0  0  0  0  0
    3.5724  -14.4239   12.1287 N   0  0  0  0  0  0  0  0  0  0  0  0
    2.6585  -13.2339   10.3881 N   0  0  0  0  0  4  0  0  0  0  0  0
    4.1524  -14.3557    8.3748 C   0  0  0  0  0  0  0  0  0  0  0  0
    2.8511  -15.1918    8.2150 C   0  0  0  0  0  0  0  0  0  0  0  0
    3.5322  -16.1643    9.1983 C   0  0  0  0  0  0  0  0  0  0  0  0
    5.9630  -16.1997   11.0882 C   0  0  0  0  0  0  0  0  0  0  0  0
    7.2987  -16.3886   11.4684 C   0  0  0  0  0  0  0  0  0  0  0  0
    7.6908  -17.6735   12.6218 Cl  0  0  0  0  0  0  0  0  0  0  0  0
    8.2793  -15.5833   10.9480 C   0  0  0  0  0  0  0  0  0  0  0  0
   10.0789  -14.3580    8.8338 C   0  0  0  0  0  0  0  0  0  0  0  0
   11.1398  -13.6517    8.3155 C   0  0  0  0  0  0  0  0  0  0  0  0
  1  2  2  0
  3  2  1  1
  2  4  1  0
  5  4  1  6
  5  6  1  0
  6 25  2  0
  6  7  1  0
  7  8  2  0
  8  9  1  0
  9 10  1  0
  9 24  2  0
 10 23  1  0
 10 11  2  0
 11 12  1  0
 13 12  1  1
 12 20  2  0
 13 19  1  0
 13 14  1  0
 17 13  1  6
 14 15  1  0
 14 16  2  3
 18 17  1  6
 19 18  1  1
 20 21  1  0
 21 22  1  0
 21 23  2  0
 24 25  1  0
M  CHG  1  16   1
M  END
$$$$
