
     RDKit          3D

 25 27  0  0  0  0  0  0  0  0999 V2000
    6.2737  -18.1561    3.2462 O   0  0  0  0  0  0  0  0  0  0  0  0
    5.4412  -17.3848    3.7434 C   0  0  0  0  0  0  0  0  0  0  0  0
    4.2854  -16.9162    2.9006 C   0  0  0  0  0  0  0  0  0  0  0  0
    5.6044  -16.9722    5.0820 N   0  0  0  0  0  0  0  0  0  0  0  0
    6.6907  -17.3315    5.9560 C   0  0  0  0  0  0  0  0  0  0  0  0
    6.3936  -16.7778    7.3065 C   0  0  0  0  0  0  0  0  0  0  0  0
    5.5115  -17.3484    8.1915 C   0  0  0  0  0  0  0  0  0  0  0  0
    5.2665  -16.7785    9.4389 C   0  0  0  0  0  0  0  0  0  0  0  0
    5.8980  -15.6232    9.8332 C   0  0  0  0  0  0  0  0  0  0  0  0
    5.6846  -14.9747   11.1234 C   0  0  0  0  0  0  0  0  0  0  0  0
    6.6836  -14.4904   11.9000 C   0  0  0  0  0  0  0  0  0  0  0  0
    6.4804  -13.8691   13.1360 C   0  0  0  0  0  0  0  0  0  0  0  0
    7.6230  -13.3694   13.9047 C   0  0  1  0  0  0  0  0  0  0  0  0
    8.0538  -14.2842   14.9887 C   0  0  0  0  0  0  0  0  0  0  0  0
    8.4344  -15.6377   14.6599 N   0  0  0  0  0  0  0  0  0  0  0  0
    8.1152  -13.9779   16.2169 N   0  0  0  0  0  4  0  0  0  0  0  0
    8.8254  -13.0125   13.0452 C   0  0  0  0  0  0  0  0  0  0  0  0
    9.0886  -11.8818   14.0796 C   0  0  0  0  0  0  0  0  0  0  0  0
    7.5620  -11.9224   14.2899 C   0  0  0  0  0  0  0  0  0  0  0  0
    5.1867  -13.7545   13.5673 C   0  0  0  0  0  0  0  0  0  0  0  0
    4.1310  -14.2456   12.7871 C   0  0  0  0  0  0  0  0  0  0  0  0
    2.4718  -14.0777   13.3818 Cl  0  0  0  0  0  0  0  0  0  0  0  0
    4.3920  -14.8460   11.5820 C   0  0  0  0  0  0  0  0  0  0  0  0
    6.7777  -15.0643    8.9371 C   0  0  0  0  0  0  0  0  0  0  0  0
    7.0318  -15.6130    7.7013 C   0  0  0  0  0  0  0  0  0  0  0  0
  1  2  2  0
  3  2  1  1
  2  4  1  0
  5  4  1  6
  5  6  1  0
  6 25  2  0
  6  7  1  0
  7  8  2  0
  8  9  1  0
  9 10  1  0
  9 24  2  0
 10 23  1  0
 10 11  2  0
 11 12  1  0
 13 12  1  6
 12 20  2  0
 13 19  1  0
 13 14  1  0
 17 13  1  6
 14 15  1  0
 14 16  2  3
 18 17  1  6
 19 18  1  1
 20 21  1  0
 21 22  1  0
 21 23  2  0
 24 25  1  0
M  CHG  1  16   1
M  END
$$$$
