
     RDKit          3D

 25 27  0  0  0  0  0  0  0  0999 V2000
    8.9643  -11.5213   15.7453 O   0  0  0  0  0  0  0  0  0  0  0  0
    9.0447  -12.7198   15.4418 C   0  0  0  0  0  0  0  0  0  0  0  0
    9.9734  -13.6101   16.2233 C   0  0  0  0  0  0  0  0  0  0  0  0
    8.2633  -13.2096   14.3749 N   0  0  0  0  0  0  0  0  0  0  0  0
    7.4204  -12.4267   13.5091 C   0  0  0  0  0  0  0  0  0  0  0  0
    7.1531  -13.2291   12.2830 C   0  0  0  0  0  0  0  0  0  0  0  0
    6.6594  -12.7018   11.1146 C   0  0  0  0  0  0  0  0  0  0  0  0
    6.4198  -13.5049   10.0019 C   0  0  0  0  0  0  0  0  0  0  0  0
    6.6683  -14.8565   10.0293 C   0  0  0  0  0  0  0  0  0  0  0  0
    6.4375  -15.7528    8.9005 C   0  0  0  0  0  0  0  0  0  0  0  0
    5.2858  -16.4386    8.7036 C   0  0  0  0  0  0  0  0  0  0  0  0
    5.0636  -17.2975    7.6228 C   0  0  0  0  0  0  0  0  0  0  0  0
    3.7816  -17.9935    7.4879 C   0  0  1  0  0  0  0  0  0  0  0  0
    2.9707  -17.5248    6.3389 C   0  0  0  0  0  0  0  0  0  0  0  0
    2.9137  -18.3288    5.1410 N   0  0  0  0  0  0  0  0  0  0  0  0
    2.3065  -16.4458    6.3100 N   0  0  0  0  0  4  0  0  0  0  0  0
    3.9148  -19.5066    7.4209 C   0  0  0  0  0  0  0  0  0  0  0  0
    2.5612  -19.5479    8.1851 C   0  0  0  0  0  0  0  0  0  0  0  0
    3.0146  -18.1913    8.7601 C   0  0  0  0  0  0  0  0  0  0  0  0
    6.0846  -17.4384    6.7225 C   0  0  0  0  0  0  0  0  0  0  0  0
    7.2885  -16.7427    6.8983 C   0  0  0  0  0  0  0  0  0  0  0  0
    8.5847  -16.9535    5.7107 Cl  0  0  0  0  0  0  0  0  0  0  0  0
    7.4487  -15.9134    7.9788 C   0  0  0  0  0  0  0  0  0  0  0  0
    7.1622  -15.3692   11.2050 C   0  0  0  0  0  0  0  0  0  0  0  0
    7.4047  -14.5913   12.3136 C   0  0  0  0  0  0  0  0  0  0  0  0
  1  2  2  0
  3  2  1  1
  2  4  1  0
  5  4  1  6
  5  6  1  0
  6 25  2  0
  6  7  1  0
  7  8  2  0
  8  9  1  0
  9 10  1  0
  9 24  2  0
 10 23  1  0
 10 11  2  0
 11 12  1  0
 13 12  1  1
 12 20  2  0
 13 19  1  0
 13 14  1  0
 17 13  1  6
 14 15  1  0
 14 16  2  3
 18 17  1  6
 19 18  1  1
 20 21  1  0
 21 22  1  0
 21 23  2  0
 24 25  1  0
M  CHG  1  16   1
M  END
$$$$
