
     RDKit          3D

 25 27  0  0  0  0  0  0  0  0999 V2000
    7.1149  -17.8346    3.9778 O   0  0  0  0  0  0  0  0  0  0  0  0
    6.3789  -16.8853    4.2817 C   0  0  0  0  0  0  0  0  0  0  0  0
    5.3820  -16.3822    3.2724 C   0  0  0  0  0  0  0  0  0  0  0  0
    6.4999  -16.3084    5.5628 N   0  0  0  0  0  0  0  0  0  0  0  0
    7.4421  -16.6911    6.5821 C   0  0  0  0  0  0  0  0  0  0  0  0
    6.9351  -16.1836    7.8875 C   0  0  0  0  0  0  0  0  0  0  0  0
    6.8412  -16.9503    9.0234 C   0  0  0  0  0  0  0  0  0  0  0  0
    6.3490  -16.4224   10.2149 C   0  0  0  0  0  0  0  0  0  0  0  0
    5.9383  -15.1135   10.3007 C   0  0  0  0  0  0  0  0  0  0  0  0
    5.4118  -14.5004   11.5163 C   0  0  0  0  0  0  0  0  0  0  0  0
    6.0026  -14.6029   12.7312 C   0  0  0  0  0  0  0  0  0  0  0  0
    5.4992  -14.0161   13.8962 C   0  0  0  0  0  0  0  0  0  0  0  0
    6.2109  -14.1754   15.1668 C   0  0  1  0  0  0  0  0  0  0  0  0
    6.9277  -12.9530   15.6019 C   0  0  0  0  0  0  0  0  0  0  0  0
    7.9802  -12.4186   14.7703 N   0  0  0  0  0  0  0  0  0  0  0  0
    6.6968  -12.3177   16.6740 N   0  0  0  0  0  4  0  0  0  0  0  0
    5.3268  -14.6667   16.3020 C   0  0  0  0  0  0  0  0  0  0  0  0
    6.5880  -15.4226   16.8081 C   0  0  0  0  0  0  0  0  0  0  0  0
    6.9875  -15.4480   15.3194 C   0  0  0  0  0  0  0  0  0  0  0  0
    4.3389  -13.2999   13.7785 C   0  0  0  0  0  0  0  0  0  0  0  0
    3.7034  -13.1754   12.5356 C   0  0  0  0  0  0  0  0  0  0  0  0
    2.2037  -12.2405   12.4266 Cl  0  0  0  0  0  0  0  0  0  0  0  0
    4.2449  -13.7737   11.4266 C   0  0  0  0  0  0  0  0  0  0  0  0
    6.0386  -14.3591    9.1562 C   0  0  0  0  0  0  0  0  0  0  0  0
    6.5219  -14.8637    7.9710 C   0  0  0  0  0  0  0  0  0  0  0  0
  1  2  2  0
  3  2  1  1
  2  4  1  0
  5  4  1  6
  5  6  1  0
  6 25  2  0
  6  7  1  0
  7  8  2  0
  8  9  1  0
  9 10  1  0
  9 24  2  0
 10 23  1  0
 10 11  2  0
 11 12  1  0
 13 12  1  6
 12 20  2  0
 13 19  1  0
 13 14  1  0
 17 13  1  6
 14 15  1  0
 14 16  2  3
 18 17  1  6
 19 18  1  1
 20 21  1  0
 21 22  1  0
 21 23  2  0
 24 25  1  0
M  CHG  1  16   1
M  END
$$$$
