
     RDKit          3D

 25 27  0  0  0  0  0  0  0  0999 V2000
   14.4671  -11.8095   10.2379 O   0  0  0  0  0  0  0  0  0  0  0  0
   14.0990  -12.7880   10.9029 C   0  0  0  0  0  0  0  0  0  0  0  0
   14.8180  -13.1116   12.1851 C   0  0  0  0  0  0  0  0  0  0  0  0
   13.0188  -13.5653   10.4362 N   0  0  0  0  0  0  0  0  0  0  0  0
   12.2449  -13.3186    9.2474 C   0  0  0  0  0  0  0  0  0  0  0  0
   10.8188  -13.6129    9.5608 C   0  0  0  0  0  0  0  0  0  0  0  0
   10.2698  -13.4961   10.8146 C   0  0  0  0  0  0  0  0  0  0  0  0
    8.9296  -13.7954   11.0492 C   0  0  0  0  0  0  0  0  0  0  0  0
    8.1039  -14.2189   10.0353 C   0  0  0  0  0  0  0  0  0  0  0  0
    6.6936  -14.5500   10.2144 C   0  0  0  0  0  0  0  0  0  0  0  0
    5.9193  -15.1043    9.2507 C   0  0  0  0  0  0  0  0  0  0  0  0
    4.5683  -15.4219    9.4212 C   0  0  0  0  0  0  0  0  0  0  0  0
    3.8105  -16.0262    8.3226 C   0  0  1  0  0  0  0  0  0  0  0  0
    3.1734  -15.0330    7.4254 C   0  0  0  0  0  0  0  0  0  0  0  0
    2.1635  -14.1481    7.9565 N   0  0  0  0  0  0  0  0  0  0  0  0
    3.4393  -14.8893    6.1946 N   0  0  0  0  0  4  0  0  0  0  0  0
    4.6230  -17.0038    7.4885 C   0  0  0  0  0  0  0  0  0  0  0  0
    3.2957  -17.7979    7.3290 C   0  0  0  0  0  0  0  0  0  0  0  0
    2.9383  -17.1857    8.6979 C   0  0  0  0  0  0  0  0  0  0  0  0
    4.0161  -15.1474   10.6429 C   0  0  0  0  0  0  0  0  0  0  0  0
    4.7906  -14.5739   11.6605 C   0  0  0  0  0  0  0  0  0  0  0  0
    4.0375  -14.2343   13.2265 Cl  0  0  0  0  0  0  0  0  0  0  0  0
    6.1119  -14.2842   11.4346 C   0  0  0  0  0  0  0  0  0  0  0  0
    8.6675  -14.3305    8.7866 C   0  0  0  0  0  0  0  0  0  0  0  0
    9.9887  -14.0395    8.5366 C   0  0  0  0  0  0  0  0  0  0  0  0
  1  2  2  0
  3  2  1  1
  2  4  1  0
  5  4  1  6
  5  6  1  0
  6 25  2  0
  6  7  1  0
  7  8  2  0
  8  9  1  0
  9 10  1  0
  9 24  2  0
 10 23  1  0
 10 11  2  0
 11 12  1  0
 13 12  1  1
 12 20  2  0
 13 19  1  0
 13 14  1  0
 17 13  1  6
 14 15  1  0
 14 16  2  3
 18 17  1  6
 19 18  1  1
 20 21  1  0
 21 22  1  0
 21 23  2  0
 24 25  1  0
M  CHG  1  16   1
M  END
$$$$
