
     RDKit          3D

 25 27  0  0  0  0  0  0  0  0999 V2000
    5.7681  -14.6696   17.6695 O   0  0  0  0  0  0  0  0  0  0  0  0
    6.5435  -14.6636   16.7031 C   0  0  0  0  0  0  0  0  0  0  0  0
    7.9615  -14.2019   16.9078 C   0  0  0  0  0  0  0  0  0  0  0  0
    6.0716  -15.0896   15.4444 N   0  0  0  0  0  0  0  0  0  0  0  0
    4.7571  -15.6029   15.1584 C   0  0  0  0  0  0  0  0  0  0  0  0
    4.7247  -16.0040   13.7243 C   0  0  0  0  0  0  0  0  0  0  0  0
    5.5598  -16.9448   13.1726 C   0  0  0  0  0  0  0  0  0  0  0  0
    5.4894  -17.2719   11.8203 C   0  0  0  0  0  0  0  0  0  0  0  0
    4.5812  -16.6663   10.9850 C   0  0  0  0  0  0  0  0  0  0  0  0
    4.4574  -16.9616    9.5609 C   0  0  0  0  0  0  0  0  0  0  0  0
    5.3620  -16.5775    8.6282 C   0  0  0  0  0  0  0  0  0  0  0  0
    5.2445  -16.8597    7.2638 C   0  0  0  0  0  0  0  0  0  0  0  0
    6.2773  -16.4088    6.3278 C   0  0  1  0  0  0  0  0  0  0  0  0
    6.0658  -15.0279    5.8321 C   0  0  0  0  0  0  0  0  0  0  0  0
    5.3970  -14.8267    4.5683 N   0  0  0  0  0  0  0  0  0  0  0  0
    6.4352  -13.9751    6.4333 N   0  0  0  0  0  4  0  0  0  0  0  0
    7.6904  -16.5318    6.8755 C   0  0  0  0  0  0  0  0  0  0  0  0
    8.1104  -16.8478    5.4121 C   0  0  0  0  0  0  0  0  0  0  0  0
    6.6774  -17.4000    5.2774 C   0  0  0  0  0  0  0  0  0  0  0  0
    4.1415  -17.5675    6.8696 C   0  0  0  0  0  0  0  0  0  0  0  0
    3.1875  -17.9792    7.8102 C   0  0  0  0  0  0  0  0  0  0  0  0
    1.7745  -18.8925    7.2585 Cl  0  0  0  0  0  0  0  0  0  0  0  0
    3.3566  -17.6728    9.1362 C   0  0  0  0  0  0  0  0  0  0  0  0
    3.7524  -15.7275   11.5516 C   0  0  0  0  0  0  0  0  0  0  0  0
    3.8080  -15.3919   12.8847 C   0  0  0  0  0  0  0  0  0  0  0  0
  1  2  2  0
  3  2  1  1
  2  4  1  0
  5  4  1  6
  5  6  1  0
  6 25  2  0
  6  7  1  0
  7  8  2  0
  8  9  1  0
  9 10  1  0
  9 24  2  0
 10 23  1  0
 10 11  2  0
 11 12  1  0
 13 12  1  1
 12 20  2  0
 13 19  1  0
 13 14  1  0
 17 13  1  6
 14 15  1  0
 14 16  2  3
 18 17  1  6
 19 18  1  1
 20 21  1  0
 21 22  1  0
 21 23  2  0
 24 25  1  0
M  CHG  1  16   1
M  END
$$$$
