
     RDKit          3D

 25 27  0  0  0  0  0  0  0  0999 V2000
   14.3747   -6.3141    5.6185 O   0  0  0  0  0  0  0  0  0  0  0  0
   15.0169   -6.3417    4.5593 C   0  0  0  0  0  0  0  0  0  0  0  0
   16.5201   -6.3944    4.6182 C   0  0  0  0  0  0  0  0  0  0  0  0
   14.3182   -6.3231    3.3345 N   0  0  0  0  0  0  0  0  0  0  0  0
   12.8914   -6.2204    3.1712 C   0  0  0  0  0  0  0  0  0  0  0  0
   12.5930   -6.2720    1.7128 C   0  0  0  0  0  0  0  0  0  0  0  0
   12.9942   -5.3136    0.8142 C   0  0  0  0  0  0  0  0  0  0  0  0
   12.6764   -5.4109   -0.5387 C   0  0  0  0  0  0  0  0  0  0  0  0
   11.9491   -6.4698   -1.0274 C   0  0  0  0  0  0  0  0  0  0  0  0
   11.5813   -6.6301   -2.4310 C   0  0  0  0  0  0  0  0  0  0  0  0
   10.9461   -5.6801   -3.1588 C   0  0  0  0  0  0  0  0  0  0  0  0
   10.5933   -5.8325   -4.5032 C   0  0  0  0  0  0  0  0  0  0  0  0
    9.9127   -4.7464   -5.2126 C   0  0  1  0  0  0  0  0  0  0  0  0
   10.8089   -3.9617   -6.0950 C   0  0  0  0  0  0  0  0  0  0  0  0
   12.1680   -4.4064   -6.2952 N   0  0  0  0  0  0  0  0  0  0  0  0
   10.4815   -2.8998   -6.7043 N   0  0  0  0  0  4  0  0  0  0  0  0
    8.7027   -5.2053   -6.0108 C   0  0  0  0  0  0  0  0  0  0  0  0
    8.0795   -3.8282   -5.6459 C   0  0  0  0  0  0  0  0  0  0  0  0
    8.9661   -3.9273   -4.3887 C   0  0  0  0  0  0  0  0  0  0  0  0
   10.9191   -7.0207   -5.0990 C   0  0  0  0  0  0  0  0  0  0  0  0
   11.5762   -8.0234   -4.3731 C   0  0  0  0  0  0  0  0  0  0  0  0
   11.9793   -9.5463   -5.1814 Cl  0  0  0  0  0  0  0  0  0  0  0  0
   11.8972   -7.8165   -3.0558 C   0  0  0  0  0  0  0  0  0  0  0  0
   11.5551   -7.4205   -0.1164 C   0  0  0  0  0  0  0  0  0  0  0  0
   11.8597   -7.3407    1.2229 C   0  0  0  0  0  0  0  0  0  0  0  0
  1  2  2  0
  3  2  1  1
  2  4  1  0
  5  4  1  6
  5  6  1  0
  6 25  2  0
  6  7  1  0
  7  8  2  0
  8  9  1  0
  9 10  1  0
  9 24  2  0
 10 23  1  0
 10 11  2  0
 11 12  1  0
 13 12  1  1
 12 20  2  0
 13 19  1  0
 13 14  1  0
 17 13  1  6
 14 15  1  0
 14 16  2  3
 18 17  1  6
 19 18  1  1
 20 21  1  0
 21 22  1  0
 21 23  2  0
 24 25  1  0
M  CHG  1  16   1
M  END
$$$$
