
     RDKit          3D

 39 43  0  0  0  0  0  0  0  0999 V2000
  -21.2277    7.3762   -0.4978 C   0  0  1  0  0  0  0  0  0  0  0  0
  -20.0007    9.2136   -2.2340 C   0  0  1  0  0  0  0  0  0  0  0  0
  -17.9196   10.9952   -3.2530 C   0  0  0  0  0  0  0  0  0  0  0  0
  -16.5491    9.9261   -1.4681 C   0  0  0  0  0  0  0  0  0  0  0  0
  -11.9185    8.8123   -0.0652 C   0  0  0  0  0  0  0  0  0  0  0  0
  -11.6938    9.3059    1.1952 C   0  0  0  0  0  0  0  0  0  0  0  0
  -10.4027    9.4067    1.7241 C   0  0  0  0  0  0  0  0  0  0  0  0
   -9.5689    8.4895   -0.3452 C   0  0  0  0  0  0  0  0  0  0  0  0
  -26.8836    8.8460    2.3044 C   0  0  0  0  0  0  0  0  0  0  0  0
  -25.8505    9.7149    2.0217 C   0  0  0  0  0  0  0  0  0  0  0  0
  -25.6901   10.8876    2.7338 C   0  0  0  0  0  0  0  0  0  0  0  0
  -26.5734   11.1929    3.7390 C   0  0  0  0  0  0  0  0  0  0  0  0
  -27.6093   10.3302    4.0285 C   0  0  0  0  0  0  0  0  0  0  0  0
  -27.7763    9.1428    3.3115 C   0  0  0  0  0  0  0  0  0  0  0  0
  -24.9339    9.3448    0.9408 C   0  0  0  0  0  0  0  0  0  0  0  0
  -23.5576    9.3524    0.9671 C   0  0  0  0  0  0  0  0  0  0  0  0
  -19.7766    7.4003   -0.9263 C   0  0  1  0  0  0  0  0  0  0  0  0
  -21.7342    8.8124   -0.6063 C   0  0  1  0  0  0  0  0  0  0  0  0
  -21.5037    9.2023   -2.0715 C   0  0  1  0  0  0  0  0  0  0  0  0
  -19.1239    6.0410   -0.7201 C   0  0  0  0  0  0  0  0  0  0  0  0
  -16.7424   10.0841   -2.9703 C   0  0  2  0  0  0  0  0  0  0  0  0
  -14.2318    9.7020   -0.6711 C   0  0  0  0  0  0  0  0  0  0  0  0
  -28.8112    8.2920    3.6089 F   0  0  0  0  0  0  0  0  0  0  0  0
  -25.2639    8.9190   -0.3065 N   0  0  0  0  0  0  0  0  0  0  0  0
  -24.1449    8.6886   -0.9775 N   0  0  0  0  0  0  0  0  0  0  0  0
  -23.0944    8.9457   -0.2219 N   0  0  0  0  0  0  0  0  0  0  0  0
  -15.3492    9.1691   -1.2387 N   0  0  0  0  0  0  0  0  0  0  0  0
  -15.0792    7.9071   -1.4983 N   0  0  0  0  0  0  0  0  0  0  0  0
  -13.8341    7.6139   -1.1189 N   0  0  0  0  0  0  0  0  0  0  0  0
  -19.6051    7.8574   -2.2176 O   0  0  0  0  0  0  0  0  0  0  0  0
  -21.9818    6.5251   -1.2994 O   0  0  0  0  0  0  0  0  0  0  0  0
  -17.7758    6.0753   -1.0186 O   0  0  0  0  0  0  0  0  0  0  0  0
  -22.1325   10.3684   -2.4003 O   0  0  0  0  0  0  0  0  0  0  0  0
  -15.5938   10.4838   -3.6092 O   0  0  0  0  0  0  0  0  0  0  0  0
  -19.4055   10.0818   -3.6681 S   0  0  0  0  0  0  0  0  0  0  0  0
  -13.2843    8.7180   -0.5995 C   0  0  0  0  0  0  0  0  0  0  0  0
   -9.3618    8.9909    0.9307 C   0  0  0  0  0  0  0  0  0  0  0  0
  -10.8571    8.4009   -0.8435 C   0  0  0  0  0  0  0  0  0  0  0  0
  -10.1646    9.8899    2.9622 F   0  0  0  0  0  0  0  0  0  0  0  0
 17  1  1  0
 18  1  1  0
  1 31  1  6
  2 19  1  0
  2 30  1  0
  2 35  1  6
 21  3  1  0
  3 35  1  0
  4 21  1  0
 27  4  1  0
  5  6  2  0
 36  5  1  0
  5 38  1  0
  6  7  1  0
  7 37  2  0
  7 39  1  0
  8 37  1  0
 38  8  2  0
 10  9  2  0
  9 14  1  0
 10 11  1  0
 15 10  1  0
 11 12  2  0
 12 13  1  0
 14 13  2  0
 14 23  1  0
 16 15  2  0
 15 24  1  0
 26 16  1  0
 17 20  1  6
 30 17  1  0
 19 18  1  0
 18 26  1  6
 19 33  1  1
 20 32  1  0
 21 34  1  1
 22 27  1  0
 22 36  2  0
 24 25  2  0
 25 26  1  0
 27 28  1  0
 28 29  2  0
 29 36  1  0
M  END
$$$$
