
     RDKit          3D

 39 43  0  0  0  0  0  0  0  0999 V2000
  -18.6032    7.1038   -0.1860 C   0  0  1  0  0  0  0  0  0  0  0  0
  -20.3764    9.2276   -0.6767 C   0  0  1  0  0  0  0  0  0  0  0  0
  -23.0278   10.2970   -1.2851 C   0  0  0  0  0  0  0  0  0  0  0  0
  -25.4826   10.4211   -0.8783 C   0  0  0  0  0  0  0  0  0  0  0  0
  -29.0420    7.8170    1.4023 C   0  0  0  0  0  0  0  0  0  0  0  0
  -28.8757    6.5387    0.9321 C   0  0  0  0  0  0  0  0  0  0  0  0
  -29.7723    5.5152    1.2569 C   0  0  0  0  0  0  0  0  0  0  0  0
  -31.0164    7.1245    2.5535 C   0  0  0  0  0  0  0  0  0  0  0  0
  -12.2540    8.8852   -1.9123 C   0  0  0  0  0  0  0  0  0  0  0  0
  -13.4341    8.4693   -2.4927 C   0  0  0  0  0  0  0  0  0  0  0  0
  -13.4597    7.9793   -3.7838 C   0  0  0  0  0  0  0  0  0  0  0  0
  -12.2916    7.9050   -4.5008 C   0  0  0  0  0  0  0  0  0  0  0  0
  -11.1072    8.3185   -3.9286 C   0  0  0  0  0  0  0  0  0  0  0  0
  -11.0755    8.8150   -2.6232 C   0  0  0  0  0  0  0  0  0  0  0  0
  -14.6537    8.5675   -1.6873 C   0  0  0  0  0  0  0  0  0  0  0  0
  -15.9407    8.2665   -2.0719 C   0  0  0  0  0  0  0  0  0  0  0  0
  -20.1121    7.0326   -0.2758 C   0  0  1  0  0  0  0  0  0  0  0  0
  -18.1764    8.3044   -1.0269 C   0  0  1  0  0  0  0  0  0  0  0  0
  -18.9133    9.4997   -0.4105 C   0  0  1  0  0  0  0  0  0  0  0  0
  -20.6415    5.7819    0.4110 C   0  0  0  0  0  0  0  0  0  0  0  0
  -24.1301   10.0769   -0.2691 C   0  0  2  0  0  0  0  0  0  0  0  0
  -27.1889    8.8888    0.0141 C   0  0  0  0  0  0  0  0  0  0  0  0
   -9.8904    9.2236   -2.0645 F   0  0  0  0  0  0  0  0  0  0  0  0
  -14.7545    8.9770   -0.3957 N   0  0  0  0  0  0  0  0  0  0  0  0
  -16.0294    8.9205   -0.0393 N   0  0  0  0  0  0  0  0  0  0  0  0
  -16.7690    8.4908   -1.0437 N   0  0  0  0  0  0  0  0  0  0  0  0
  -26.5106   10.0688    0.0623 N   0  0  0  0  0  0  0  0  0  0  0  0
  -26.9875   10.7401    1.0893 N   0  0  0  0  0  0  0  0  0  0  0  0
  -27.9430   10.0353    1.6980 N   0  0  0  0  0  0  0  0  0  0  0  0
  -20.7327    8.1731    0.1934 O   0  0  0  0  0  0  0  0  0  0  0  0
  -18.1772    7.2470    1.1307 O   0  0  0  0  0  0  0  0  0  0  0  0
  -21.9595    5.5392    0.0767 O   0  0  0  0  0  0  0  0  0  0  0  0
  -18.4486   10.6926   -0.8842 O   0  0  0  0  0  0  0  0  0  0  0  0
  -23.9032   10.7363    0.9146 O   0  0  0  0  0  0  0  0  0  0  0  0
  -21.4462   10.6395   -0.5131 S   0  0  0  0  0  0  0  0  0  0  0  0
  -28.0873    8.8758    1.0455 C   0  0  0  0  0  0  0  0  0  0  0  0
  -30.8316    5.8388    2.0686 C   0  0  0  0  0  0  0  0  0  0  0  0
  -30.1138    8.1179    2.2162 C   0  0  0  0  0  0  0  0  0  0  0  0
  -29.6230    4.2526    0.8027 F   0  0  0  0  0  0  0  0  0  0  0  0
 17  1  1  0
 18  1  1  0
  1 31  1  1
  2 19  1  0
  2 30  1  0
  2 35  1  1
 21  3  1  0
  3 35  1  0
  4 21  1  0
 27  4  1  0
  5  6  2  0
 36  5  1  0
  5 38  1  0
  6  7  1  0
  7 37  2  0
  7 39  1  0
  8 37  1  0
 38  8  2  0
 10  9  2  0
  9 14  1  0
 10 11  1  0
 15 10  1  0
 11 12  2  0
 12 13  1  0
 14 13  2  0
 14 23  1  0
 16 15  2  0
 15 24  1  0
 26 16  1  0
 17 20  1  1
 30 17  1  0
 19 18  1  0
 18 26  1  1
 19 33  1  6
 20 32  1  0
 21 34  1  1
 22 27  1  0
 22 36  2  0
 24 25  2  0
 25 26  1  0
 27 28  1  0
 28 29  2  0
 29 36  1  0
M  END
$$$$
