
     RDKit          3D

 39 43  0  0  0  0  0  0  0  0999 V2000
  -24.5195    8.1696   -0.9444 C   0  0  1  0  0  0  0  0  0  0  0  0
  -22.1273    8.9949   -1.2479 C   0  0  1  0  0  0  0  0  0  0  0  0
  -19.2636    8.2771   -1.7064 C   0  0  0  0  0  0  0  0  0  0  0  0
  -16.8934    9.1275   -2.0791 C   0  0  0  0  0  0  0  0  0  0  0  0
  -12.2880    8.6181   -0.2256 C   0  0  0  0  0  0  0  0  0  0  0  0
  -11.5531    8.1626   -1.2899 C   0  0  0  0  0  0  0  0  0  0  0  0
  -10.2758    7.7254   -1.0950 C   0  0  0  0  0  0  0  0  0  0  0  0
  -10.4568    8.1912    1.2079 C   0  0  0  0  0  0  0  0  0  0  0  0
  -27.1844    8.9813    4.7914 C   0  0  0  0  0  0  0  0  0  0  0  0
  -27.2779    9.9170    3.7829 C   0  0  0  0  0  0  0  0  0  0  0  0
  -28.3622   10.7632    3.8457 C   0  0  0  0  0  0  0  0  0  0  0  0
  -29.2958   10.6809    4.8526 C   0  0  0  0  0  0  0  0  0  0  0  0
  -29.1698    9.7187    5.8598 C   0  0  0  0  0  0  0  0  0  0  0  0
  -28.0919    8.8623    5.8159 C   0  0  0  0  0  0  0  0  0  0  0  0
  -26.2904    9.9944    2.7159 C   0  0  0  0  0  0  0  0  0  0  0  0
  -25.6524    8.8980    2.1828 C   0  0  0  0  0  0  0  0  0  0  0  0
  -24.3097    9.2300   -2.0332 C   0  0  1  0  0  0  0  0  0  0  0  0
  -23.9245    8.5768    0.3506 C   0  0  1  0  0  0  0  0  0  0  0  0
  -22.6103    9.2898    0.1766 C   0  0  1  0  0  0  0  0  0  0  0  0
  -25.1713   10.4431   -1.7603 C   0  0  0  0  0  0  0  0  0  0  0  0
  -17.8908    8.4581   -1.2010 C   0  0  2  0  0  0  0  0  0  0  0  0
  -14.5075    8.5902   -1.3993 C   0  0  0  0  0  0  0  0  0  0  0  0
  -27.9493    7.9216    6.7820 F   0  0  0  0  0  0  0  0  0  0  0  0
  -25.8213   11.0551    2.0581 N   0  0  0  0  0  0  0  0  0  0  0  0
  -24.9345   10.6434    1.1575 N   0  0  0  0  0  0  0  0  0  0  0  0
  -24.8186    9.2975    1.2240 N   0  0  0  0  0  0  0  0  0  0  0  0
  -15.6455    9.2557   -1.3009 N   0  0  0  0  0  0  0  0  0  0  0  0
  -15.5085   10.1323   -0.3256 N   0  0  0  0  0  0  0  0  0  0  0  0
  -14.3069   10.0507    0.2117 N   0  0  0  0  0  0  0  0  0  0  0  0
  -22.9893    9.5356   -2.1993 O   0  0  0  0  0  0  0  0  0  0  0  0
  -25.8801    7.9154   -0.9319 O   0  0  0  0  0  0  0  0  0  0  0  0
  -25.6338   11.0213   -2.9367 O   0  0  0  0  0  0  0  0  0  0  0  0
  -21.6536    8.7647    1.0319 O   0  0  0  0  0  0  0  0  0  0  0  0
  -17.3347    7.2364   -0.7388 O   0  0  0  0  0  0  0  0  0  0  0  0
  -20.4582    9.5689   -1.4991 S   0  0  0  0  0  0  0  0  0  0  0  0
  -13.6362    9.0832   -0.4396 C   0  0  0  0  0  0  0  0  0  0  0  0
   -9.7014    7.7285    0.1454 C   0  0  0  0  0  0  0  0  0  0  0  0
  -11.7441    8.6341    1.0236 C   0  0  0  0  0  0  0  0  0  0  0  0
   -9.5481    7.2745   -2.1451 F   0  0  0  0  0  0  0  0  0  0  0  0
 17  1  1  0
 18  1  1  0
  1 31  1  1
  2 19  1  0
  2 30  1  0
  2 35  1  1
 21  3  1  0
  3 35  1  6
  4 21  1  0
  4 27  1  6
  5  6  2  0
 36  5  1  0
  5 38  1  0
  6  7  1  0
  7 37  2  0
  7 39  1  0
  8 37  1  0
 38  8  2  0
 10  9  2  0
  9 14  1  0
 10 11  1  0
 15 10  1  0
 11 12  2  0
 12 13  1  0
 14 13  2  0
 14 23  1  0
 16 15  2  0
 15 24  1  0
 26 16  1  0
 17 20  1  0
 17 30  1  1
 19 18  1  0
 18 26  1  6
 19 33  1  1
 20 32  1  6
 21 34  1  6
 22 27  1  0
 22 36  2  0
 24 25  2  0
 25 26  1  0
 27 28  1  0
 28 29  2  0
 29 36  1  0
M  END
$$$$
