
     RDKit          3D

 39 43  0  0  0  0  0  0  0  0999 V2000
  -20.8732    8.3415    0.6578 C   0  0  1  0  0  0  0  0  0  0  0  0
  -19.7132    9.2418   -1.4254 C   0  0  1  0  0  0  0  0  0  0  0  0
  -17.4471   10.8350   -2.5448 C   0  0  0  0  0  0  0  0  0  0  0  0
  -15.8563    8.8544   -2.3820 C   0  0  0  0  0  0  0  0  0  0  0  0
  -11.4681    8.6220   -0.0168 C   0  0  0  0  0  0  0  0  0  0  0  0
  -11.8570    8.7356    1.2931 C   0  0  0  0  0  0  0  0  0  0  0  0
  -10.9179    8.7322    2.2825 C   0  0  0  0  0  0  0  0  0  0  0  0
   -9.2102    8.5037    0.6749 C   0  0  0  0  0  0  0  0  0  0  0  0
  -26.4247    8.6952    2.6331 C   0  0  0  0  0  0  0  0  0  0  0  0
  -26.4360    9.0581    1.3029 C   0  0  0  0  0  0  0  0  0  0  0  0
  -27.6701    9.3590    0.7717 C   0  0  0  0  0  0  0  0  0  0  0  0
  -28.8220    9.3011    1.5213 C   0  0  0  0  0  0  0  0  0  0  0  0
  -28.7736    8.9285    2.8686 C   0  0  0  0  0  0  0  0  0  0  0  0
  -27.5486    8.6238    3.4198 C   0  0  0  0  0  0  0  0  0  0  0  0
  -25.2143    9.1104    0.5129 C   0  0  0  0  0  0  0  0  0  0  0  0
  -23.9657    9.3290    1.0481 C   0  0  0  0  0  0  0  0  0  0  0  0
  -20.4912    7.2980   -0.4001 C   0  0  1  0  0  0  0  0  0  0  0  0
  -21.6261    9.4764    0.0731 C   0  0  1  0  0  0  0  0  0  0  0  0
  -21.1035    9.8714   -1.2821 C   0  0  1  0  0  0  0  0  0  0  0  0
  -21.7175    6.5417   -0.8613 C   0  0  0  0  0  0  0  0  0  0  0  0
  -16.0991   10.2754   -2.7506 C   0  0  2  0  0  0  0  0  0  0  0  0
  -13.8278    8.7952   -0.8572 C   0  0  0  0  0  0  0  0  0  0  0  0
  -27.4777    8.2601    4.7242 F   0  0  0  0  0  0  0  0  0  0  0  0
  -25.0363    8.9628   -0.8003 N   0  0  0  0  0  0  0  0  0  0  0  0
  -23.7408    9.0822   -1.0735 N   0  0  0  0  0  0  0  0  0  0  0  0
  -23.0595    9.3113    0.0721 N   0  0  0  0  0  0  0  0  0  0  0  0
  -14.4268    8.7334   -2.0341 N   0  0  0  0  0  0  0  0  0  0  0  0
  -13.4937    8.5299   -2.9431 N   0  0  0  0  0  0  0  0  0  0  0  0
  -12.3020    8.4584   -2.3826 N   0  0  0  0  0  0  0  0  0  0  0  0
  -19.7828    7.8505   -1.4285 O   0  0  0  0  0  0  0  0  0  0  0  0
  -21.5212    7.6360    1.6570 O   0  0  0  0  0  0  0  0  0  0  0  0
  -21.7217    5.2331   -0.3930 O   0  0  0  0  0  0  0  0  0  0  0  0
  -20.9218   11.2441   -1.3537 O   0  0  0  0  0  0  0  0  0  0  0  0
  -15.0980   11.0756   -2.1398 O   0  0  0  0  0  0  0  0  0  0  0  0
  -18.8757    9.8424   -2.8802 S   0  0  0  0  0  0  0  0  0  0  0  0
  -12.4666    8.6217   -1.0574 C   0  0  0  0  0  0  0  0  0  0  0  0
   -9.5851    8.6174    2.0016 C   0  0  0  0  0  0  0  0  0  0  0  0
  -10.1471    8.5059   -0.3299 C   0  0  0  0  0  0  0  0  0  0  0  0
  -11.3000    8.8447    3.5774 F   0  0  0  0  0  0  0  0  0  0  0  0
 17  1  1  0
 18  1  1  0
  1 31  1  1
  2 19  1  0
  2 30  1  0
  2 35  1  6
 21  3  1  0
  3 35  1  6
  4 21  1  0
  4 27  1  6
  5  6  2  0
 36  5  1  0
  5 38  1  0
  6  7  1  0
  7 37  2  0
  7 39  1  0
  8 37  1  0
 38  8  2  0
 10  9  2  0
  9 14  1  0
 10 11  1  0
 15 10  1  0
 11 12  2  0
 12 13  1  0
 14 13  2  0
 14 23  1  0
 16 15  2  0
 15 24  1  0
 26 16  1  0
 17 20  1  0
 17 30  1  6
 19 18  1  0
 18 26  1  6
 19 33  1  1
 20 32  1  6
 21 34  1  1
 22 27  1  0
 22 36  2  0
 24 25  2  0
 25 26  1  0
 27 28  1  0
 28 29  2  0
 29 36  1  0
M  END
$$$$
