
     RDKit          3D

 39 43  0  0  0  0  0  0  0  0999 V2000
  -18.5858    7.5854   -2.0856 C   0  0  1  0  0  0  0  0  0  0  0  0
  -20.7402    8.5729   -1.1479 C   0  0  1  0  0  0  0  0  0  0  0  0
  -23.3339    9.9360   -1.7320 C   0  0  0  0  0  0  0  0  0  0  0  0
  -24.7044   11.9254   -0.9294 C   0  0  0  0  0  0  0  0  0  0  0  0
  -24.8626   16.9003   -1.2896 C   0  0  0  0  0  0  0  0  0  0  0  0
  -25.9625   17.0856   -2.0871 C   0  0  0  0  0  0  0  0  0  0  0  0
  -26.3191   18.3457   -2.4691 C   0  0  0  0  0  0  0  0  0  0  0  0
  -24.4960   19.2361   -1.2707 C   0  0  0  0  0  0  0  0  0  0  0  0
  -13.0565   10.0891   -0.1174 C   0  0  0  0  0  0  0  0  0  0  0  0
  -13.6828    9.0258    0.4978 C   0  0  0  0  0  0  0  0  0  0  0  0
  -12.8626    8.1612    1.1875 C   0  0  0  0  0  0  0  0  0  0  0  0
  -11.5014    8.3459    1.2587 C   0  0  0  0  0  0  0  0  0  0  0  0
  -10.8992    9.4360    0.6219 C   0  0  0  0  0  0  0  0  0  0  0  0
  -11.7019   10.3133   -0.0732 C   0  0  0  0  0  0  0  0  0  0  0  0
  -15.1232    8.8316    0.4127 C   0  0  0  0  0  0  0  0  0  0  0  0
  -15.8583    9.0486   -0.7300 C   0  0  0  0  0  0  0  0  0  0  0  0
  -19.4878    6.6136   -1.3136 C   0  0  1  0  0  0  0  0  0  0  0  0
  -18.3180    8.8247   -1.3180 C   0  0  1  0  0  0  0  0  0  0  0  0
  -19.5262    9.2963   -0.5542 C   0  0  1  0  0  0  0  0  0  0  0  0
  -18.7329    6.0022   -0.1539 C   0  0  0  0  0  0  0  0  0  0  0  0
  -23.5808   11.3892   -1.7444 C   0  0  2  0  0  0  0  0  0  0  0  0
  -25.0616   14.3987   -1.3745 C   0  0  0  0  0  0  0  0  0  0  0  0
  -11.1398   11.3772   -0.6983 F   0  0  0  0  0  0  0  0  0  0  0  0
  -15.9892    8.4250    1.3414 N   0  0  0  0  0  0  0  0  0  0  0  0
  -17.2057    8.3884    0.8067 N   0  0  0  0  0  0  0  0  0  0  0  0
  -17.1392    8.7756   -0.4874 N   0  0  0  0  0  0  0  0  0  0  0  0
  -24.4765   13.3758   -0.7755 N   0  0  0  0  0  0  0  0  0  0  0  0
  -23.5782   13.8650    0.0565 N   0  0  0  0  0  0  0  0  0  0  0  0
  -23.5670   15.1830    0.0109 N   0  0  0  0  0  0  0  0  0  0  0  0
  -20.6643    7.1975   -0.9403 O   0  0  0  0  0  0  0  0  0  0  0  0
  -17.4732    6.8474   -2.4510 O   0  0  0  0  0  0  0  0  0  0  0  0
  -18.8065    4.6143   -0.1661 O   0  0  0  0  0  0  0  0  0  0  0  0
  -19.7364   10.6510   -0.7620 O   0  0  0  0  0  0  0  0  0  0  0  0
  -23.7052   11.8907   -3.0667 O   0  0  0  0  0  0  0  0  0  0  0  0
  -22.2669    9.2323   -0.5052 S   0  0  0  0  0  0  0  0  0  0  0  0
  -24.4940   15.5658   -0.8857 C   0  0  0  0  0  0  0  0  0  0  0  0
  -25.6026   19.4410   -2.0749 C   0  0  0  0  0  0  0  0  0  0  0  0
  -24.1274   17.9717   -0.8796 C   0  0  0  0  0  0  0  0  0  0  0  0
  -27.4052   18.5310   -3.2574 F   0  0  0  0  0  0  0  0  0  0  0  0
 17  1  1  0
 18  1  1  0
  1 31  1  1
  2 19  1  0
  2 30  1  0
  2 35  1  1
 21  3  1  0
  3 35  1  6
  4 21  1  0
  4 27  1  6
  5  6  2  0
 36  5  1  0
  5 38  1  0
  6  7  1  0
  7 37  2  0
  7 39  1  0
  8 37  1  0
 38  8  2  0
 10  9  2  0
  9 14  1  0
 10 11  1  0
 15 10  1  0
 11 12  2  0
 12 13  1  0
 14 13  2  0
 14 23  1  0
 16 15  2  0
 15 24  1  0
 26 16  1  0
 17 20  1  0
 17 30  1  1
 19 18  1  0
 18 26  1  1
 19 33  1  6
 20 32  1  6
 21 34  1  6
 22 27  1  0
 22 36  2  0
 24 25  2  0
 25 26  1  0
 27 28  1  0
 28 29  2  0
 29 36  1  0
M  END
$$$$
