
     RDKit          3D

 39 43  0  0  0  0  0  0  0  0999 V2000
  -21.5128    8.3448   -2.4141 C   0  0  1  0  0  0  0  0  0  0  0  0
  -19.0904    8.1534   -1.6449 C   0  0  1  0  0  0  0  0  0  0  0  0
  -16.5947    6.5113   -1.6191 C   0  0  0  0  0  0  0  0  0  0  0  0
  -14.3830    7.3452   -2.5640 C   0  0  0  0  0  0  0  0  0  0  0  0
  -12.5809   10.6022    0.7599 C   0  0  0  0  0  0  0  0  0  0  0  0
  -12.1024    9.7743    1.7427 C   0  0  0  0  0  0  0  0  0  0  0  0
  -11.4235   10.3007    2.8023 C   0  0  0  0  0  0  0  0  0  0  0  0
  -11.6939   12.4661    1.9131 C   0  0  0  0  0  0  0  0  0  0  0  0
  -25.6551   11.4307    2.1209 C   0  0  0  0  0  0  0  0  0  0  0  0
  -25.3547   10.3858    1.2728 C   0  0  0  0  0  0  0  0  0  0  0  0
  -26.4050    9.5602    0.9394 C   0  0  0  0  0  0  0  0  0  0  0  0
  -27.6766    9.7643    1.4227 C   0  0  0  0  0  0  0  0  0  0  0  0
  -27.9456   10.8347    2.2819 C   0  0  0  0  0  0  0  0  0  0  0  0
  -26.9088   11.6731    2.6276 C   0  0  0  0  0  0  0  0  0  0  0  0
  -24.0053   10.1708    0.7704 C   0  0  0  0  0  0  0  0  0  0  0  0
  -23.6095    9.0349    0.1023 C   0  0  0  0  0  0  0  0  0  0  0  0
  -20.5414    9.3803   -2.9956 C   0  0  1  0  0  0  0  0  0  0  0  0
  -21.4239    8.2670   -0.9366 C   0  0  1  0  0  0  0  0  0  0  0  0
  -20.0083    8.3965   -0.4416 C   0  0  1  0  0  0  0  0  0  0  0  0
  -21.0067   10.7818   -2.6673 C   0  0  0  0  0  0  0  0  0  0  0  0
  -15.1233    6.4299   -1.6539 C   0  0  2  0  0  0  0  0  0  0  0  0
  -13.2918    8.6977   -0.7138 C   0  0  0  0  0  0  0  0  0  0  0  0
  -27.1464   12.7174    3.4592 F   0  0  0  0  0  0  0  0  0  0  0  0
  -22.9332   10.9614    0.8292 N   0  0  0  0  0  0  0  0  0  0  0  0
  -21.9171   10.3513    0.2271 N   0  0  0  0  0  0  0  0  0  0  0  0
  -22.3250    9.1464   -0.2321 N   0  0  0  0  0  0  0  0  0  0  0  0
  -14.0502    8.5556   -1.7872 N   0  0  0  0  0  0  0  0  0  0  0  0
  -14.5147    9.7480   -2.1046 N   0  0  0  0  0  0  0  0  0  0  0  0
  -14.0748   10.6613   -1.2609 N   0  0  0  0  0  0  0  0  0  0  0  0
  -19.2522    9.1397   -2.6154 O   0  0  0  0  0  0  0  0  0  0  0  0
  -22.7552    8.6718   -2.9293 O   0  0  0  0  0  0  0  0  0  0  0  0
  -20.9497   11.6164   -3.7773 O   0  0  0  0  0  0  0  0  0  0  0  0
  -19.7205    7.4003    0.4789 O   0  0  0  0  0  0  0  0  0  0  0  0
  -14.6747    5.1035   -1.8880 O   0  0  0  0  0  0  0  0  0  0  0  0
  -17.3842    8.0244   -1.1441 S   0  0  0  0  0  0  0  0  0  0  0  0
  -13.2938   10.0385   -0.3597 C   0  0  0  0  0  0  0  0  0  0  0  0
  -11.2044   11.6454    2.9132 C   0  0  0  0  0  0  0  0  0  0  0  0
  -12.3790   11.9473    0.8412 C   0  0  0  0  0  0  0  0  0  0  0  0
  -10.9502    9.4846    3.7746 F   0  0  0  0  0  0  0  0  0  0  0  0
 17  1  1  0
 18  1  1  0
  1 31  1  1
  2 19  1  0
  2 30  1  0
  2 35  1  1
 21  3  1  0
  3 35  1  6
  4 21  1  0
  4 27  1  6
  5  6  2  0
 36  5  1  0
  5 38  1  0
  6  7  1  0
  7 37  2  0
  7 39  1  0
  8 37  1  0
 38  8  2  0
 10  9  2  0
  9 14  1  0
 10 11  1  0
 15 10  1  0
 11 12  2  0
 12 13  1  0
 14 13  2  0
 14 23  1  0
 16 15  2  0
 15 24  1  0
 26 16  1  0
 17 20  1  0
 17 30  1  1
 19 18  1  0
 18 26  1  1
 19 33  1  1
 20 32  1  6
 21 34  1  6
 22 27  1  0
 22 36  2  0
 24 25  2  0
 25 26  1  0
 27 28  1  0
 28 29  2  0
 29 36  1  0
M  END
$$$$
