
     RDKit          3D

 39 43  0  0  0  0  0  0  0  0999 V2000
  -25.2606   10.1542   -1.0726 C   0  0  1  0  0  0  0  0  0  0  0  0
  -22.5518    9.6888   -0.4881 C   0  0  1  0  0  0  0  0  0  0  0  0
  -19.9370    8.3826   -0.5070 C   0  0  0  0  0  0  0  0  0  0  0  0
  -17.7003    7.3038   -0.7078 C   0  0  0  0  0  0  0  0  0  0  0  0
  -13.1354    7.7781   -2.6021 C   0  0  0  0  0  0  0  0  0  0  0  0
  -13.3241    7.5882   -3.9480 C   0  0  0  0  0  0  0  0  0  0  0  0
  -12.2513    7.5849   -4.8458 C   0  0  0  0  0  0  0  0  0  0  0  0
  -10.7841    7.9732   -2.9709 C   0  0  0  0  0  0  0  0  0  0  0  0
  -29.4592    8.5882    3.8406 C   0  0  0  0  0  0  0  0  0  0  0  0
  -28.1508    8.1778    3.6930 C   0  0  0  0  0  0  0  0  0  0  0  0
  -27.6646    7.0839    4.3822 C   0  0  0  0  0  0  0  0  0  0  0  0
  -28.4976    6.3942    5.2275 C   0  0  0  0  0  0  0  0  0  0  0  0
  -29.8071    6.7974    5.3812 C   0  0  0  0  0  0  0  0  0  0  0  0
  -30.3041    7.9030    4.6867 C   0  0  0  0  0  0  0  0  0  0  0  0
  -27.3015    8.9455    2.7793 C   0  0  0  0  0  0  0  0  0  0  0  0
  -26.4044    8.4572    1.8564 C   0  0  0  0  0  0  0  0  0  0  0  0
  -24.1298    9.9748   -2.0619 C   0  0  1  0  0  0  0  0  0  0  0  0
  -24.8477    9.4106    0.1952 C   0  0  1  0  0  0  0  0  0  0  0  0
  -23.5198   10.0531    0.6145 C   0  0  1  0  0  0  0  0  0  0  0  0
  -24.4954   10.5560   -3.4202 C   0  0  0  0  0  0  0  0  0  0  0  0
  -18.4506    8.6283   -0.6679 C   0  0  2  0  0  0  0  0  0  0  0  0
  -15.5761    7.4328   -1.9433 C   0  0  0  0  0  0  0  0  0  0  0  0
  -31.6094    8.2948    4.8480 F   0  0  0  0  0  0  0  0  0  0  0  0
  -27.2323   10.2974    2.6625 N   0  0  0  0  0  0  0  0  0  0  0  0
  -26.3442   10.5893    1.7236 N   0  0  0  0  0  0  0  0  0  0  0  0
  -25.8280    9.4847    1.2195 N   0  0  0  0  0  0  0  0  0  0  0  0
  -16.2923    7.5784   -0.7941 N   0  0  0  0  0  0  0  0  0  0  0  0
  -15.4506    7.9949    0.1285 N   0  0  0  0  0  0  0  0  0  0  0  0
  -14.2262    8.1207   -0.3865 N   0  0  0  0  0  0  0  0  0  0  0  0
  -22.9280   10.4740   -1.6008 O   0  0  0  0  0  0  0  0  0  0  0  0
  -25.4929   11.4991   -0.8024 O   0  0  0  0  0  0  0  0  0  0  0  0
  -24.0262    9.7670   -4.4522 O   0  0  0  0  0  0  0  0  0  0  0  0
  -23.1383    9.6773    1.8701 O   0  0  0  0  0  0  0  0  0  0  0  0
  -17.9475    9.4896    0.2768 O   0  0  0  0  0  0  0  0  0  0  0  0
  -20.8323    9.8737   -0.0714 S   0  0  0  0  0  0  0  0  0  0  0  0
  -14.2786    7.7756   -1.6785 C   0  0  0  0  0  0  0  0  0  0  0  0
  -10.9946    7.7797   -4.3275 C   0  0  0  0  0  0  0  0  0  0  0  0
  -11.8639    7.9718   -2.1052 C   0  0  0  0  0  0  0  0  0  0  0  0
  -12.4199    7.3996   -6.1724 F   0  0  0  0  0  0  0  0  0  0  0  0
 17  1  1  0
 18  1  1  0
  1 31  1  1
  2 19  1  0
  2 30  1  0
  2 35  1  1
 21  3  1  0
  3 35  1  0
  4 21  1  0
 27  4  1  0
  5  6  2  0
 36  5  1  0
  5 38  1  0
  6  7  1  0
  7 37  2  0
  7 39  1  0
  8 37  1  0
 38  8  2  0
 10  9  2  0
  9 14  1  0
 10 11  1  0
 15 10  1  0
 11 12  2  0
 12 13  1  0
 14 13  2  0
 14 23  1  0
 16 15  2  0
 15 24  1  0
 26 16  1  0
 17 20  1  6
 30 17  1  0
 19 18  1  0
 18 26  1  1
 19 33  1  1
 20 32  1  0
 21 34  1  1
 22 27  1  0
 22 36  2  0
 24 25  2  0
 25 26  1  0
 27 28  1  0
 28 29  2  0
 29 36  1  0
M  END
$$$$
