
     RDKit          3D

 39 43  0  0  0  0  0  0  0  0999 V2000
  -25.2993    9.7075   -1.6730 C   0  0  1  0  0  0  0  0  0  0  0  0
  -22.5150    9.3297   -1.6943 C   0  0  1  0  0  0  0  0  0  0  0  0
  -19.9273    8.2233   -0.9047 C   0  0  0  0  0  0  0  0  0  0  0  0
  -17.8460    9.5780   -0.7039 C   0  0  0  0  0  0  0  0  0  0  0  0
  -13.1339    8.8153    0.6619 C   0  0  0  0  0  0  0  0  0  0  0  0
  -11.9418    9.4488    0.4160 C   0  0  0  0  0  0  0  0  0  0  0  0
  -10.7880    9.1508    1.1486 C   0  0  0  0  0  0  0  0  0  0  0  0
  -12.0883    7.5441    2.3921 C   0  0  0  0  0  0  0  0  0  0  0  0
  -26.1617    7.5063    4.4259 C   0  0  0  0  0  0  0  0  0  0  0  0
  -26.6456    8.7434    4.0549 C   0  0  0  0  0  0  0  0  0  0  0  0
  -27.5159    9.4419    4.8687 C   0  0  0  0  0  0  0  0  0  0  0  0
  -27.9055    8.8958    6.0662 C   0  0  0  0  0  0  0  0  0  0  0  0
  -27.4268    7.6595    6.4452 C   0  0  0  0  0  0  0  0  0  0  0  0
  -26.5463    6.9486    5.6260 C   0  0  0  0  0  0  0  0  0  0  0  0
  -26.2004    9.2843    2.7685 C   0  0  0  0  0  0  0  0  0  0  0  0
  -25.4715    8.6411    1.7938 C   0  0  0  0  0  0  0  0  0  0  0  0
  -24.4364    9.3353   -2.8590 C   0  0  1  0  0  0  0  0  0  0  0  0
  -24.5655    9.2080   -0.4309 C   0  0  1  0  0  0  0  0  0  0  0  0
  -23.1990    9.9029   -0.4740 C   0  0  1  0  0  0  0  0  0  0  0  0
  -25.1406    9.6580   -4.1691 C   0  0  0  0  0  0  0  0  0  0  0  0
  -18.4284    8.2356   -1.1256 C   0  0  2  0  0  0  0  0  0  0  0  0
  -15.6390    9.1141    0.2805 C   0  0  0  0  0  0  0  0  0  0  0  0
  -26.0767    5.7188    6.0140 F   0  0  0  0  0  0  0  0  0  0  0  0
  -26.4208   10.5338    2.2821 N   0  0  0  0  0  0  0  0  0  0  0  0
  -25.8536   10.6217    1.0879 N   0  0  0  0  0  0  0  0  0  0  0  0
  -25.2703    9.4816    0.7708 N   0  0  0  0  0  0  0  0  0  0  0  0
  -16.4129    9.4965   -0.7729 N   0  0  0  0  0  0  0  0  0  0  0  0
  -15.5957    9.7476   -1.7740 N   0  0  0  0  0  0  0  0  0  0  0  0
  -14.3315    9.5406   -1.4010 N   0  0  0  0  0  0  0  0  0  0  0  0
  -23.1771    9.8985   -2.8052 O   0  0  0  0  0  0  0  0  0  0  0  0
  -25.5065   11.0816   -1.6046 O   0  0  0  0  0  0  0  0  0  0  0  0
  -24.7227    8.8244   -5.1880 O   0  0  0  0  0  0  0  0  0  0  0  0
  -22.5116    9.7627    0.6970 O   0  0  0  0  0  0  0  0  0  0  0  0
  -18.0758    7.8886   -2.4072 O   0  0  0  0  0  0  0  0  0  0  0  0
  -20.7533    9.5703   -1.7520 S   0  0  0  0  0  0  0  0  0  0  0  0
  -14.3322    9.1446   -0.1227 C   0  0  0  0  0  0  0  0  0  0  0  0
  -10.8927    8.1950    2.1290 C   0  0  0  0  0  0  0  0  0  0  0  0
  -13.2145    7.8587    1.6518 C   0  0  0  0  0  0  0  0  0  0  0  0
   -9.6077    9.7649    0.9192 F   0  0  0  0  0  0  0  0  0  0  0  0
 17  1  1  0
 18  1  1  0
  1 31  1  1
  2 19  1  0
  2 30  1  0
  2 35  1  1
 21  3  1  0
  3 35  1  0
  4 21  1  0
 27  4  1  0
  5  6  2  0
 36  5  1  0
  5 38  1  0
  6  7  1  0
  7 37  2  0
  7 39  1  0
  8 37  1  0
 38  8  2  0
 10  9  2  0
  9 14  1  0
 10 11  1  0
 15 10  1  0
 11 12  2  0
 12 13  1  0
 14 13  2  0
 14 23  1  0
 16 15  2  0
 15 24  1  0
 26 16  1  0
 17 20  1  6
 30 17  1  0
 19 18  1  0
 18 26  1  1
 19 33  1  1
 20 32  1  0
 21 34  1  6
 22 27  1  0
 22 36  2  0
 24 25  2  0
 25 26  1  0
 27 28  1  0
 28 29  2  0
 29 36  1  0
M  END
$$$$
