
     RDKit          3D

 39 43  0  0  0  0  0  0  0  0999 V2000
  -24.5723    8.9967   -1.5533 C   0  0  1  0  0  0  0  0  0  0  0  0
  -22.0731    9.2911   -1.1487 C   0  0  1  0  0  0  0  0  0  0  0  0
  -19.3054    8.7093   -2.1117 C   0  0  0  0  0  0  0  0  0  0  0  0
  -17.3442    8.7869   -0.4908 C   0  0  0  0  0  0  0  0  0  0  0  0
  -12.3571    8.6450   -0.3767 C   0  0  0  0  0  0  0  0  0  0  0  0
  -12.0016    9.7226    0.3930 C   0  0  0  0  0  0  0  0  0  0  0  0
  -10.6952   10.1101    0.4559 C   0  0  0  0  0  0  0  0  0  0  0  0
  -10.0956    8.3622   -1.0062 C   0  0  0  0  0  0  0  0  0  0  0  0
  -28.9843    9.7431    3.3062 C   0  0  0  0  0  0  0  0  0  0  0  0
  -27.7653    9.0989    3.3162 C   0  0  0  0  0  0  0  0  0  0  0  0
  -27.6089    8.1214    4.2732 C   0  0  0  0  0  0  0  0  0  0  0  0
  -28.6072    7.8063    5.1656 C   0  0  0  0  0  0  0  0  0  0  0  0
  -29.8319    8.4807    5.1271 C   0  0  0  0  0  0  0  0  0  0  0  0
  -30.0092    9.4620    4.1769 C   0  0  0  0  0  0  0  0  0  0  0  0
  -26.7099    9.4419    2.3737 C   0  0  0  0  0  0  0  0  0  0  0  0
  -26.0526    8.5198    1.5921 C   0  0  0  0  0  0  0  0  0  0  0  0
  -23.9735   10.3349   -2.0054 C   0  0  1  0  0  0  0  0  0  0  0  0
  -24.2141    8.6721   -0.1521 C   0  0  1  0  0  0  0  0  0  0  0  0
  -22.7998    9.0647    0.1818 C   0  0  1  0  0  0  0  0  0  0  0  0
  -24.6772   11.4855   -1.3202 C   0  0  0  0  0  0  0  0  0  0  0  0
  -17.9398    8.2822   -1.7575 C   0  0  2  0  0  0  0  0  0  0  0  0
  -14.8263    9.0990   -0.4128 C   0  0  0  0  0  0  0  0  0  0  0  0
  -31.1885   10.1290    4.1209 F   0  0  0  0  0  0  0  0  0  0  0  0
  -26.1860   10.6296    2.0694 N   0  0  0  0  0  0  0  0  0  0  0  0
  -25.2480   10.4598    1.1428 N   0  0  0  0  0  0  0  0  0  0  0  0
  -25.1537    9.1463    0.8348 N   0  0  0  0  0  0  0  0  0  0  0  0
  -15.9278    8.3711   -0.4802 N   0  0  0  0  0  0  0  0  0  0  0  0
  -15.5629    7.1056   -0.5422 N   0  0  0  0  0  0  0  0  0  0  0  0
  -14.2489    6.9956   -0.5167 N   0  0  0  0  0  0  0  0  0  0  0  0
  -22.6173   10.3653   -1.8491 O   0  0  0  0  0  0  0  0  0  0  0  0
  -25.9263    9.0852   -1.8268 O   0  0  0  0  0  0  0  0  0  0  0  0
  -24.9630   12.5162   -2.2078 O   0  0  0  0  0  0  0  0  0  0  0  0
  -22.1412    8.0225    0.8162 O   0  0  0  0  0  0  0  0  0  0  0  0
  -17.0221    8.5240   -2.8134 O   0  0  0  0  0  0  0  0  0  0  0  0
  -20.3213    9.5114   -0.9020 S   0  0  0  0  0  0  0  0  0  0  0  0
  -13.7394    8.2380   -0.4350 C   0  0  0  0  0  0  0  0  0  0  0  0
   -9.7196    9.4469   -0.2346 C   0  0  0  0  0  0  0  0  0  0  0  0
  -11.4081    7.9627   -1.0771 C   0  0  0  0  0  0  0  0  0  0  0  0
  -10.3418   11.1748    1.2156 F   0  0  0  0  0  0  0  0  0  0  0  0
 17  1  1  0
 18  1  1  0
  1 31  1  1
  2 19  1  0
  2 30  1  0
  2 35  1  1
 21  3  1  0
  3 35  1  6
  4 21  1  0
  4 27  1  6
  5  6  2  0
 36  5  1  0
  5 38  1  0
  6  7  1  0
  7 37  2  0
  7 39  1  0
  8 37  1  0
 38  8  2  0
 10  9  2  0
  9 14  1  0
 10 11  1  0
 15 10  1  0
 11 12  2  0
 12 13  1  0
 14 13  2  0
 14 23  1  0
 16 15  2  0
 15 24  1  0
 26 16  1  0
 17 20  1  0
 17 30  1  1
 19 18  1  0
 18 26  1  1
 19 33  1  6
 20 32  1  6
 21 34  1  6
 22 27  1  0
 22 36  2  0
 24 25  2  0
 25 26  1  0
 27 28  1  0
 28 29  2  0
 29 36  1  0
M  END
$$$$
