
     RDKit          3D

 39 43  0  0  0  0  0  0  0  0999 V2000
  -19.0300    6.8877   -1.5631 C   0  0  1  0  0  0  0  0  0  0  0  0
  -20.6314    8.6767   -0.7081 C   0  0  1  0  0  0  0  0  0  0  0  0
  -23.3793    9.8400   -0.8549 C   0  0  0  0  0  0  0  0  0  0  0  0
  -25.9161    9.9502   -0.6744 C   0  0  0  0  0  0  0  0  0  0  0  0
  -28.9676    9.3313    3.2256 C   0  0  0  0  0  0  0  0  0  0  0  0
  -28.6975    8.0348    3.5808 C   0  0  0  0  0  0  0  0  0  0  0  0
  -29.3382    7.4760    4.6475 C   0  0  0  0  0  0  0  0  0  0  0  0
  -30.5129    9.4866    5.0084 C   0  0  0  0  0  0  0  0  0  0  0  0
  -12.5173    7.4687   -0.3323 C   0  0  0  0  0  0  0  0  0  0  0  0
  -13.4450    7.8190   -1.2904 C   0  0  0  0  0  0  0  0  0  0  0  0
  -12.9808    7.8759   -2.5853 C   0  0  0  0  0  0  0  0  0  0  0  0
  -11.6714    7.6007   -2.9048 C   0  0  0  0  0  0  0  0  0  0  0  0
  -10.7567    7.2488   -1.9069 C   0  0  0  0  0  0  0  0  0  0  0  0
  -11.2009    7.1855   -0.6046 C   0  0  0  0  0  0  0  0  0  0  0  0
  -14.8278    8.1162   -0.9450 C   0  0  0  0  0  0  0  0  0  0  0  0
  -15.8924    7.8892   -1.7867 C   0  0  0  0  0  0  0  0  0  0  0  0
  -19.7005    6.5972   -0.2140 C   0  0  1  0  0  0  0  0  0  0  0  0
  -18.4010    8.2294   -1.5941 C   0  0  1  0  0  0  0  0  0  0  0  0
  -19.2255    9.2639   -0.8759 C   0  0  1  0  0  0  0  0  0  0  0  0
  -18.6554    6.3815    0.8583 C   0  0  0  0  0  0  0  0  0  0  0  0
  -24.5777   10.1652   -0.0607 C   0  0  2  0  0  0  0  0  0  0  0  0
  -27.3198    9.2806    1.3317 C   0  0  0  0  0  0  0  0  0  0  0  0
  -10.3317    6.8464    0.3794 F   0  0  0  0  0  0  0  0  0  0  0  0
  -15.3403    8.6263    0.1752 N   0  0  0  0  0  0  0  0  0  0  0  0
  -16.6601    8.7136    0.0419 N   0  0  0  0  0  0  0  0  0  0  0  0
  -17.0194    8.2564   -1.1791 N   0  0  0  0  0  0  0  0  0  0  0  0
  -26.9182   10.1233    0.3957 N   0  0  0  0  0  0  0  0  0  0  0  0
  -27.5921   11.2450    0.5571 N   0  0  0  0  0  0  0  0  0  0  0  0
  -28.4226   11.1493    1.5772 N   0  0  0  0  0  0  0  0  0  0  0  0
  -20.6183    7.5531    0.1153 O   0  0  0  0  0  0  0  0  0  0  0  0
  -18.1837    5.8170   -1.7944 O   0  0  0  0  0  0  0  0  0  0  0  0
  -19.1565    5.6444    1.9248 O   0  0  0  0  0  0  0  0  0  0  0  0
  -19.3662   10.4022   -1.6550 O   0  0  0  0  0  0  0  0  0  0  0  0
  -24.5260   11.4876    0.4531 O   0  0  0  0  0  0  0  0  0  0  0  0
  -21.7774    9.8999   -0.1007 S   0  0  0  0  0  0  0  0  0  0  0  0
  -28.2833    9.9173    2.0995 C   0  0  0  0  0  0  0  0  0  0  0  0
  -30.2522    8.1800    5.3805 C   0  0  0  0  0  0  0  0  0  0  0  0
  -29.8737   10.0599    3.9360 C   0  0  0  0  0  0  0  0  0  0  0  0
  -29.0730    6.1950    5.0000 F   0  0  0  0  0  0  0  0  0  0  0  0
 17  1  1  0
 18  1  1  0
  1 31  1  1
  2 19  1  0
  2 30  1  0
  2 35  1  1
 21  3  1  0
  3 35  1  6
  4 21  1  0
  4 27  1  6
  5  6  2  0
 36  5  1  0
  5 38  1  0
  6  7  1  0
  7 37  2  0
  7 39  1  0
  8 37  1  0
 38  8  2  0
 10  9  2  0
  9 14  1  0
 10 11  1  0
 15 10  1  0
 11 12  2  0
 12 13  1  0
 14 13  2  0
 14 23  1  0
 16 15  2  0
 15 24  1  0
 26 16  1  0
 17 20  1  0
 17 30  1  1
 19 18  1  0
 18 26  1  1
 19 33  1  6
 20 32  1  6
 21 34  1  6
 22 27  1  0
 22 36  2  0
 24 25  2  0
 25 26  1  0
 27 28  1  0
 28 29  2  0
 29 36  1  0
M  END
$$$$
