
     RDKit          3D

 39 43  0  0  0  0  0  0  0  0999 V2000
  -18.6832    6.7591   -0.9849 C   0  0  1  0  0  0  0  0  0  0  0  0
  -20.5380    8.6616   -0.0706 C   0  0  1  0  0  0  0  0  0  0  0  0
  -23.1290   10.0104    0.0327 C   0  0  0  0  0  0  0  0  0  0  0  0
  -25.3913   10.9769    0.4265 C   0  0  0  0  0  0  0  0  0  0  0  0
  -28.3495   12.6427    4.0495 C   0  0  0  0  0  0  0  0  0  0  0  0
  -29.0871   12.0716    5.0558 C   0  0  0  0  0  0  0  0  0  0  0  0
  -29.6629   12.8423    6.0713 C   0  0  0  0  0  0  0  0  0  0  0  0
  -28.7197   14.7951    5.0152 C   0  0  0  0  0  0  0  0  0  0  0  0
  -12.6043    9.4345   -2.1235 C   0  0  0  0  0  0  0  0  0  0  0  0
  -13.8584   10.0066   -2.1703 C   0  0  0  0  0  0  0  0  0  0  0  0
  -14.0685   11.2126   -2.8102 C   0  0  0  0  0  0  0  0  0  0  0  0
  -13.0117   11.8518   -3.4091 C   0  0  0  0  0  0  0  0  0  0  0  0
  -11.7545   11.2872   -3.3672 C   0  0  0  0  0  0  0  0  0  0  0  0
  -11.5363   10.0677   -2.7214 C   0  0  0  0  0  0  0  0  0  0  0  0
  -14.9539    9.2861   -1.5173 C   0  0  0  0  0  0  0  0  0  0  0  0
  -16.2882    9.3010   -1.8553 C   0  0  0  0  0  0  0  0  0  0  0  0
  -20.1922    6.6484   -1.0067 C   0  0  1  0  0  0  0  0  0  0  0  0
  -18.3587    8.2505   -1.0177 C   0  0  1  0  0  0  0  0  0  0  0  0
  -19.0632    8.8346    0.2130 C   0  0  1  0  0  0  0  0  0  0  0  0
  -20.6314    5.1959   -1.1226 C   0  0  0  0  0  0  0  0  0  0  0  0
  -24.3527    9.9815    0.9258 C   0  0  2  0  0  0  0  0  0  0  0  0
  -26.6518   12.0782    2.2303 C   0  0  0  0  0  0  0  0  0  0  0  0
  -10.2803    9.5157   -2.6864 F   0  0  0  0  0  0  0  0  0  0  0  0
  -14.8674    8.4570   -0.4443 N   0  0  0  0  0  0  0  0  0  0  0  0
  -16.0827    8.0087   -0.1656 N   0  0  0  0  0  0  0  0  0  0  0  0
  -16.9628    8.5093   -1.0115 N   0  0  0  0  0  0  0  0  0  0  0  0
  -26.4666   11.0319    1.3784 N   0  0  0  0  0  0  0  0  0  0  0  0
  -27.4288   10.1673    1.6229 N   0  0  0  0  0  0  0  0  0  0  0  0
  -28.2203   10.6206    2.5967 N   0  0  0  0  0  0  0  0  0  0  0  0
  -20.7928    7.2785    0.0649 O   0  0  0  0  0  0  0  0  0  0  0  0
  -18.1447    6.1617    0.1504 O   0  0  0  0  0  0  0  0  0  0  0  0
  -21.9720    5.0463   -0.8256 O   0  0  0  0  0  0  0  0  0  0  0  0
  -18.6681   10.1148    0.4747 O   0  0  0  0  0  0  0  0  0  0  0  0
  -24.0479   10.1608    2.2533 O   0  0  0  0  0  0  0  0  0  0  0  0
  -21.6189    9.6570    0.9322 S   0  0  0  0  0  0  0  0  0  0  0  0
  -27.7560   11.8117    2.9925 C   0  0  0  0  0  0  0  0  0  0  0  0
  -29.4618   14.1999    6.0238 C   0  0  0  0  0  0  0  0  0  0  0  0
  -28.1613   14.0084    4.0230 C   0  0  0  0  0  0  0  0  0  0  0  0
  -30.3911   12.2960    7.0684 F   0  0  0  0  0  0  0  0  0  0  0  0
 17  1  1  0
 18  1  1  0
  1 31  1  1
  2 19  1  0
  2 30  1  0
  2 35  1  1
 21  3  1  0
  3 35  1  0
  4 21  1  0
 27  4  1  0
  5  6  2  0
 36  5  1  0
  5 38  1  0
  6  7  1  0
  7 37  2  0
  7 39  1  0
  8 37  1  0
 38  8  2  0
 10  9  2  0
  9 14  1  0
 10 11  1  0
 15 10  1  0
 11 12  2  0
 12 13  1  0
 14 13  2  0
 14 23  1  0
 16 15  2  0
 15 24  1  0
 26 16  1  0
 17 20  1  1
 30 17  1  0
 19 18  1  0
 18 26  1  1
 19 33  1  6
 20 32  1  0
 21 34  1  1
 22 27  1  0
 22 36  2  0
 24 25  2  0
 25 26  1  0
 27 28  1  0
 28 29  2  0
 29 36  1  0
M  END
$$$$
