
     RDKit          3D

 39 43  0  0  0  0  0  0  0  0999 V2000
  -22.3141    7.2034   -0.8738 C   0  0  1  0  0  0  0  0  0  0  0  0
  -20.2770    8.9894   -1.6197 C   0  0  1  0  0  0  0  0  0  0  0  0
  -18.0107    9.1958   -3.4540 C   0  0  0  0  0  0  0  0  0  0  0  0
  -16.3325    8.2229   -1.8905 C   0  0  0  0  0  0  0  0  0  0  0  0
  -12.5324    9.0787    1.1882 C   0  0  0  0  0  0  0  0  0  0  0  0
  -13.1325    9.1916    2.4171 C   0  0  0  0  0  0  0  0  0  0  0  0
  -12.3975    9.4999    3.5667 C   0  0  0  0  0  0  0  0  0  0  0  0
  -10.4209    9.5769    2.1862 C   0  0  0  0  0  0  0  0  0  0  0  0
  -27.0141    9.3218    3.0660 C   0  0  0  0  0  0  0  0  0  0  0  0
  -25.8286    9.9962    2.8612 C   0  0  0  0  0  0  0  0  0  0  0  0
  -25.3770   10.9356    3.7675 C   0  0  0  0  0  0  0  0  0  0  0  0
  -26.1203   11.2020    4.8902 C   0  0  0  0  0  0  0  0  0  0  0  0
  -27.3068   10.5326    5.1031 C   0  0  0  0  0  0  0  0  0  0  0  0
  -27.7683    9.5815    4.1897 C   0  0  0  0  0  0  0  0  0  0  0  0
  -25.0709    9.6767    1.6490 C   0  0  0  0  0  0  0  0  0  0  0  0
  -23.7759    9.2178    1.5644 C   0  0  0  0  0  0  0  0  0  0  0  0
  -20.9247    6.8535   -1.3606 C   0  0  1  0  0  0  0  0  0  0  0  0
  -22.2139    8.5888   -0.2401 C   0  0  1  0  0  0  0  0  0  0  0  0
  -21.6771    9.4946   -1.3550 C   0  0  1  0  0  0  0  0  0  0  0  0
  -20.8734    5.4256   -1.8847 C   0  0  0  0  0  0  0  0  0  0  0  0
  -16.6124    9.3388   -2.8882 C   0  0  2  0  0  0  0  0  0  0  0  0
  -14.6884    8.7069   -0.1248 C   0  0  0  0  0  0  0  0  0  0  0  0
  -28.9509    8.9217    4.4126 F   0  0  0  0  0  0  0  0  0  0  0  0
  -25.5001    9.7710    0.3632 N   0  0  0  0  0  0  0  0  0  0  0  0
  -24.5132    9.3890   -0.4341 N   0  0  0  0  0  0  0  0  0  0  0  0
  -23.4544    9.0481    0.2754 N   0  0  0  0  0  0  0  0  0  0  0  0
  -14.9859    8.3668   -1.4095 N   0  0  0  0  0  0  0  0  0  0  0  0
  -13.8393    8.2169   -2.0387 N   0  0  0  0  0  0  0  0  0  0  0  0
  -12.8224    8.4477   -1.2063 N   0  0  0  0  0  0  0  0  0  0  0  0
  -20.4370    7.7540   -2.2864 O   0  0  0  0  0  0  0  0  0  0  0  0
  -23.2347    7.2033   -1.9170 O   0  0  0  0  0  0  0  0  0  0  0  0
  -19.7107    4.7862   -1.5013 O   0  0  0  0  0  0  0  0  0  0  0  0
  -21.7659   10.8180   -1.0325 O   0  0  0  0  0  0  0  0  0  0  0  0
  -16.3751   10.5858   -2.3628 O   0  0  0  0  0  0  0  0  0  0  0  0
  -19.2264   10.1154   -2.5102 S   0  0  0  0  0  0  0  0  0  0  0  0
  -13.3266    8.7556   -0.0055 C   0  0  0  0  0  0  0  0  0  0  0  0
  -11.0450    9.6867    3.4193 C   0  0  0  0  0  0  0  0  0  0  0  0
  -11.1725    9.2708    1.0652 C   0  0  0  0  0  0  0  0  0  0  0  0
  -12.9724    9.6146    4.7829 F   0  0  0  0  0  0  0  0  0  0  0  0
 17  1  1  0
 18  1  1  0
  1 31  1  6
  2 19  1  0
  2 30  1  0
  2 35  1  6
 21  3  1  0
  3 35  1  0
  4 21  1  0
 27  4  1  0
  5  6  2  0
 36  5  1  0
  5 38  1  0
  6  7  1  0
  7 37  2  0
  7 39  1  0
  8 37  1  0
 38  8  2  0
 10  9  2  0
  9 14  1  0
 10 11  1  0
 15 10  1  0
 11 12  2  0
 12 13  1  0
 14 13  2  0
 14 23  1  0
 16 15  2  0
 15 24  1  0
 26 16  1  0
 17 20  1  6
 30 17  1  0
 19 18  1  0
 18 26  1  6
 19 33  1  1
 20 32  1  0
 21 34  1  1
 22 27  1  0
 22 36  2  0
 24 25  2  0
 25 26  1  0
 27 28  1  0
 28 29  2  0
 29 36  1  0
M  END
$$$$
