
     RDKit          3D

 39 43  0  0  0  0  0  0  0  0999 V2000
  -18.4324    7.2771   -0.3425 C   0  0  1  0  0  0  0  0  0  0  0  0
  -20.3316    9.3229   -0.6638 C   0  0  1  0  0  0  0  0  0  0  0  0
  -22.8071   10.5853   -1.5703 C   0  0  0  0  0  0  0  0  0  0  0  0
  -24.7456   11.0802   -0.0855 C   0  0  0  0  0  0  0  0  0  0  0  0
  -28.2166    9.3640    3.0222 C   0  0  0  0  0  0  0  0  0  0  0  0
  -27.6007    9.4184    4.2472 C   0  0  0  0  0  0  0  0  0  0  0  0
  -28.2542    9.0120    5.4155 C   0  0  0  0  0  0  0  0  0  0  0  0
  -30.1815    8.4913    4.0616 C   0  0  0  0  0  0  0  0  0  0  0  0
  -12.1104    8.7616   -1.2904 C   0  0  0  0  0  0  0  0  0  0  0  0
  -13.1923    7.9193   -1.4398 C   0  0  0  0  0  0  0  0  0  0  0  0
  -13.0183    6.5628   -1.6335 C   0  0  0  0  0  0  0  0  0  0  0  0
  -11.7480    6.0449   -1.6780 C   0  0  0  0  0  0  0  0  0  0  0  0
  -10.6605    6.8795   -1.5297 C   0  0  0  0  0  0  0  0  0  0  0  0
  -10.8306    8.2523   -1.3335 C   0  0  0  0  0  0  0  0  0  0  0  0
  -14.5275    8.5191   -1.3842 C   0  0  0  0  0  0  0  0  0  0  0  0
  -15.7369    7.8690   -1.2865 C   0  0  0  0  0  0  0  0  0  0  0  0
  -19.9387    7.1336   -0.3458 C   0  0  1  0  0  0  0  0  0  0  0  0
  -18.1148    8.5200   -1.1703 C   0  0  1  0  0  0  0  0  0  0  0  0
  -18.8699    9.6599   -0.4757 C   0  0  1  0  0  0  0  0  0  0  0  0
  -20.3653    5.8398    0.3326 C   0  0  0  0  0  0  0  0  0  0  0  0
  -24.0725   10.0252   -0.9532 C   0  0  2  0  0  0  0  0  0  0  0  0
  -26.2338   10.2806    1.7036 C   0  0  0  0  0  0  0  0  0  0  0  0
   -9.7404    9.0729   -1.1871 F   0  0  0  0  0  0  0  0  0  0  0  0
  -14.8359    9.8420   -1.4183 N   0  0  0  0  0  0  0  0  0  0  0  0
  -16.1532    9.9643   -1.3448 N   0  0  0  0  0  0  0  0  0  0  0  0
  -16.7216    8.7765   -1.2639 N   0  0  0  0  0  0  0  0  0  0  0  0
  -25.9943   10.5518    0.3906 N   0  0  0  0  0  0  0  0  0  0  0  0
  -27.0900   10.2387   -0.2685 N   0  0  0  0  0  0  0  0  0  0  0  0
  -28.0188    9.7787    0.5717 N   0  0  0  0  0  0  0  0  0  0  0  0
  -20.5841    8.2285    0.1933 O   0  0  0  0  0  0  0  0  0  0  0  0
  -17.9354    7.4051    0.9506 O   0  0  0  0  0  0  0  0  0  0  0  0
  -21.7083    5.5834    0.1367 O   0  0  0  0  0  0  0  0  0  0  0  0
  -18.4922   10.8870   -0.9394 O   0  0  0  0  0  0  0  0  0  0  0  0
  -23.8604    8.8470   -0.2792 O   0  0  0  0  0  0  0  0  0  0  0  0
  -21.4561   10.6749   -0.3950 S   0  0  0  0  0  0  0  0  0  0  0  0
  -27.5083    9.7951    1.8088 C   0  0  0  0  0  0  0  0  0  0  0  0
  -29.5426    8.5537    5.2905 C   0  0  0  0  0  0  0  0  0  0  0  0
  -29.5111    8.9000    2.9219 C   0  0  0  0  0  0  0  0  0  0  0  0
  -27.6626    9.0593    6.6282 F   0  0  0  0  0  0  0  0  0  0  0  0
 17  1  1  0
 18  1  1  0
  1 31  1  1
  2 19  1  0
  2 30  1  0
  2 35  1  1
 21  3  1  0
  3 35  1  0
  4 21  1  0
 27  4  1  0
  5  6  2  0
 36  5  1  0
  5 38  1  0
  6  7  1  0
  7 37  2  0
  7 39  1  0
  8 37  1  0
 38  8  2  0
 10  9  2  0
  9 14  1  0
 10 11  1  0
 15 10  1  0
 11 12  2  0
 12 13  1  0
 14 13  2  0
 14 23  1  0
 16 15  2  0
 15 24  1  0
 26 16  1  0
 17 20  1  1
 30 17  1  0
 19 18  1  0
 18 26  1  1
 19 33  1  6
 20 32  1  0
 21 34  1  1
 22 27  1  0
 22 36  2  0
 24 25  2  0
 25 26  1  0
 27 28  1  0
 28 29  2  0
 29 36  1  0
M  END
$$$$
