
     RDKit          3D

 39 43  0  0  0  0  0  0  0  0999 V2000
  -24.6285    8.9643   -1.4809 C   0  0  1  0  0  0  0  0  0  0  0  0
  -22.1295    9.1124   -1.0025 C   0  0  1  0  0  0  0  0  0  0  0  0
  -19.3988    8.0605   -1.6049 C   0  0  0  0  0  0  0  0  0  0  0  0
  -17.2584    9.3556   -2.0752 C   0  0  0  0  0  0  0  0  0  0  0  0
  -13.0098    8.7360    0.4683 C   0  0  0  0  0  0  0  0  0  0  0  0
  -12.2640    9.7406    1.0293 C   0  0  0  0  0  0  0  0  0  0  0  0
  -11.3813    9.4533    2.0289 C   0  0  0  0  0  0  0  0  0  0  0  0
  -11.9776    7.1764    1.9150 C   0  0  0  0  0  0  0  0  0  0  0  0
  -28.4369    9.9733    4.2066 C   0  0  0  0  0  0  0  0  0  0  0  0
  -27.9725    9.0702    3.2738 C   0  0  0  0  0  0  0  0  0  0  0  0
  -28.6230    7.8574    3.2344 C   0  0  0  0  0  0  0  0  0  0  0  0
  -29.6721    7.5634    4.0742 C   0  0  0  0  0  0  0  0  0  0  0  0
  -30.1171    8.5036    5.0092 C   0  0  0  0  0  0  0  0  0  0  0  0
  -29.4802    9.7236    5.0649 C   0  0  0  0  0  0  0  0  0  0  0  0
  -26.8570    9.3846    2.3927 C   0  0  0  0  0  0  0  0  0  0  0  0
  -26.2399    8.4613    1.5803 C   0  0  0  0  0  0  0  0  0  0  0  0
  -23.9494   10.2845   -1.8680 C   0  0  1  0  0  0  0  0  0  0  0  0
  -24.3258    8.5717   -0.0841 C   0  0  1  0  0  0  0  0  0  0  0  0
  -22.9029    8.8774    0.2999 C   0  0  1  0  0  0  0  0  0  0  0  0
  -24.6113   11.4453   -1.1588 C   0  0  0  0  0  0  0  0  0  0  0  0
  -17.9276    8.1348   -1.5502 C   0  0  2  0  0  0  0  0  0  0  0  0
  -15.3225    8.9251   -0.4909 C   0  0  0  0  0  0  0  0  0  0  0  0
  -29.8947   10.6505    5.9636 F   0  0  0  0  0  0  0  0  0  0  0  0
  -26.2331   10.5438    2.1806 N   0  0  0  0  0  0  0  0  0  0  0  0
  -25.2738   10.3558    1.2798 N   0  0  0  0  0  0  0  0  0  0  0  0
  -25.2663    9.0592    0.8955 N   0  0  0  0  0  0  0  0  0  0  0  0
  -15.8472    9.2967   -1.6460 N   0  0  0  0  0  0  0  0  0  0  0  0
  -14.8526    9.6401   -2.4405 N   0  0  0  0  0  0  0  0  0  0  0  0
  -13.6936    9.4998   -1.8269 N   0  0  0  0  0  0  0  0  0  0  0  0
  -22.5983   10.2380   -1.6763 O   0  0  0  0  0  0  0  0  0  0  0  0
  -25.9682    9.1335   -1.7853 O   0  0  0  0  0  0  0  0  0  0  0  0
  -24.7649   12.5419   -1.9988 O   0  0  0  0  0  0  0  0  0  0  0  0
  -22.3164    7.7800    0.9118 O   0  0  0  0  0  0  0  0  0  0  0  0
  -17.3207    6.9980   -2.1458 O   0  0  0  0  0  0  0  0  0  0  0  0
  -20.3759    9.2316   -0.7035 S   0  0  0  0  0  0  0  0  0  0  0  0
  -13.9443    9.0476   -0.5849 C   0  0  0  0  0  0  0  0  0  0  0  0
  -11.2175    8.1777    2.4921 C   0  0  0  0  0  0  0  0  0  0  0  0
  -12.8698    7.4539    0.9078 C   0  0  0  0  0  0  0  0  0  0  0  0
  -10.6432   10.4443    2.5843 F   0  0  0  0  0  0  0  0  0  0  0  0
 17  1  1  0
 18  1  1  0
  1 31  1  1
  2 19  1  0
  2 30  1  0
  2 35  1  1
 21  3  1  0
  3 35  1  6
  4 21  1  0
  4 27  1  6
  5  6  2  0
 36  5  1  0
  5 38  1  0
  6  7  1  0
  7 37  2  0
  7 39  1  0
  8 37  1  0
 38  8  2  0
 10  9  2  0
  9 14  1  0
 10 11  1  0
 15 10  1  0
 11 12  2  0
 12 13  1  0
 14 13  2  0
 14 23  1  0
 16 15  2  0
 15 24  1  0
 26 16  1  0
 17 20  1  0
 17 30  1  1
 19 18  1  0
 18 26  1  1
 19 33  1  6
 20 32  1  6
 21 34  1  6
 22 27  1  0
 22 36  2  0
 24 25  2  0
 25 26  1  0
 27 28  1  0
 28 29  2  0
 29 36  1  0
M  END
$$$$
