
     RDKit          3D

 39 43  0  0  0  0  0  0  0  0999 V2000
  -18.6419    6.6875   -0.7646 C   0  0  1  0  0  0  0  0  0  0  0  0
  -20.4084    8.8717   -0.8315 C   0  0  1  0  0  0  0  0  0  0  0  0
  -22.2502   10.8500   -1.9439 C   0  0  0  0  0  0  0  0  0  0  0  0
  -23.1990   13.1123   -1.5094 C   0  0  0  0  0  0  0  0  0  0  0  0
  -21.3649   16.7551    1.3221 C   0  0  0  0  0  0  0  0  0  0  0  0
  -21.1174   18.1005    1.2146 C   0  0  0  0  0  0  0  0  0  0  0  0
  -20.5553   18.8294    2.2679 C   0  0  0  0  0  0  0  0  0  0  0  0
  -20.5011   16.7858    3.5482 C   0  0  0  0  0  0  0  0  0  0  0  0
  -12.3112    8.4741    0.6696 C   0  0  0  0  0  0  0  0  0  0  0  0
  -13.2927    9.0875   -0.0805 C   0  0  0  0  0  0  0  0  0  0  0  0
  -12.9789   10.0718   -0.9973 C   0  0  0  0  0  0  0  0  0  0  0  0
  -11.6687   10.4453   -1.1645 C   0  0  0  0  0  0  0  0  0  0  0  0
  -10.6808    9.8375   -0.4190 C   0  0  0  0  0  0  0  0  0  0  0  0
  -10.9926    8.8415    0.5097 C   0  0  0  0  0  0  0  0  0  0  0  0
  -14.6755    8.6542    0.1334 C   0  0  0  0  0  0  0  0  0  0  0  0
  -15.7261    8.7302   -0.7527 C   0  0  0  0  0  0  0  0  0  0  0  0
  -20.0093    6.7377   -1.4107 C   0  0  1  0  0  0  0  0  0  0  0  0
  -18.1180    8.1214   -0.7496 C   0  0  1  0  0  0  0  0  0  0  0  0
  -19.1694    8.9173    0.0335 C   0  0  1  0  0  0  0  0  0  0  0  0
  -20.5702    5.3372   -1.6109 C   0  0  0  0  0  0  0  0  0  0  0  0
  -21.9765   12.3397   -1.9863 C   0  0  2  0  0  0  0  0  0  0  0  0
  -22.2428   14.6752    0.1333 C   0  0  0  0  0  0  0  0  0  0  0  0
  -10.0005    8.2438    1.2460 F   0  0  0  0  0  0  0  0  0  0  0  0
  -15.1952    8.0890    1.2545 N   0  0  0  0  0  0  0  0  0  0  0  0
  -16.4800    7.8456    1.0407 N   0  0  0  0  0  0  0  0  0  0  0  0
  -16.8246    8.2278   -0.1741 N   0  0  0  0  0  0  0  0  0  0  0  0
  -22.7784   14.4220   -1.0930 N   0  0  0  0  0  0  0  0  0  0  0  0
  -22.8097   15.5687   -1.7387 N   0  0  0  0  0  0  0  0  0  0  0  0
  -22.3154   16.5432   -0.9731 N   0  0  0  0  0  0  0  0  0  0  0  0
  -20.8954    7.5493   -0.7309 O   0  0  0  0  0  0  0  0  0  0  0  0
  -18.7067    6.1722    0.5261 O   0  0  0  0  0  0  0  0  0  0  0  0
  -21.6307    5.3374   -2.4958 O   0  0  0  0  0  0  0  0  0  0  0  0
  -18.7330   10.1693    0.3578 O   0  0  0  0  0  0  0  0  0  0  0  0
  -21.5316   12.7650   -3.2144 O   0  0  0  0  0  0  0  0  0  0  0  0
  -21.6461   10.0874   -0.4380 S   0  0  0  0  0  0  0  0  0  0  0  0
  -21.9547   16.0107    0.2005 C   0  0  0  0  0  0  0  0  0  0  0  0
  -20.2584   18.1449    3.4207 C   0  0  0  0  0  0  0  0  0  0  0  0
  -21.0581   16.0893    2.4900 C   0  0  0  0  0  0  0  0  0  0  0  0
  -20.3057   20.1532    2.1783 F   0  0  0  0  0  0  0  0  0  0  0  0
 17  1  1  0
 18  1  1  0
  1 31  1  1
  2 19  1  0
  2 30  1  0
  2 35  1  1
 21  3  1  0
  3 35  1  0
  4 21  1  0
 27  4  1  0
  5  6  2  0
 36  5  1  0
  5 38  1  0
  6  7  1  0
  7 37  2  0
  7 39  1  0
  8 37  1  0
 38  8  2  0
 10  9  2  0
  9 14  1  0
 10 11  1  0
 15 10  1  0
 11 12  2  0
 12 13  1  0
 14 13  2  0
 14 23  1  0
 16 15  2  0
 15 24  1  0
 26 16  1  0
 17 20  1  1
 30 17  1  0
 19 18  1  0
 18 26  1  1
 19 33  1  6
 20 32  1  0
 21 34  1  6
 22 27  1  0
 22 36  2  0
 24 25  2  0
 25 26  1  0
 27 28  1  0
 28 29  2  0
 29 36  1  0
M  END
$$$$
