
     RDKit          3D

 39 43  0  0  0  0  0  0  0  0999 V2000
  -21.5277    6.7365   -0.2473 C   0  0  1  0  0  0  0  0  0  0  0  0
  -19.9188    8.7081   -1.4389 C   0  0  1  0  0  0  0  0  0  0  0  0
  -17.8768   10.7814   -1.7127 C   0  0  0  0  0  0  0  0  0  0  0  0
  -15.6105   10.5115   -2.7118 C   0  0  0  0  0  0  0  0  0  0  0  0
  -11.6643    9.3637    0.0742 C   0  0  0  0  0  0  0  0  0  0  0  0
  -10.5211   10.0693    0.3532 C   0  0  0  0  0  0  0  0  0  0  0  0
   -9.6901    9.7259    1.4249 C   0  0  0  0  0  0  0  0  0  0  0  0
  -11.2142    7.9246    1.9261 C   0  0  0  0  0  0  0  0  0  0  0  0
  -27.6805    8.6577    1.3990 C   0  0  0  0  0  0  0  0  0  0  0  0
  -26.4631    9.2931    1.5264 C   0  0  0  0  0  0  0  0  0  0  0  0
  -26.2827   10.3114    2.4421 C   0  0  0  0  0  0  0  0  0  0  0  0
  -27.3324   10.6970    3.2380 C   0  0  0  0  0  0  0  0  0  0  0  0
  -28.5531   10.0674    3.1174 C   0  0  0  0  0  0  0  0  0  0  0  0
  -28.7411    9.0369    2.1930 C   0  0  0  0  0  0  0  0  0  0  0  0
  -25.3736    8.8456    0.6555 C   0  0  0  0  0  0  0  0  0  0  0  0
  -24.0240    8.8544    0.9265 C   0  0  0  0  0  0  0  0  0  0  0  0
  -20.0200    6.7313   -0.3755 C   0  0  1  0  0  0  0  0  0  0  0  0
  -21.9570    8.2015   -0.2538 C   0  0  1  0  0  0  0  0  0  0  0  0
  -21.4233    8.7632   -1.5773 C   0  0  1  0  0  0  0  0  0  0  0  0
  -19.4650    5.3212   -0.2350 C   0  0  0  0  0  0  0  0  0  0  0  0
  -16.5123   10.1454   -1.5406 C   0  0  2  0  0  0  0  0  0  0  0  0
  -13.8785    9.9050   -1.0724 C   0  0  0  0  0  0  0  0  0  0  0  0
  -29.9609    8.4177    2.0822 F   0  0  0  0  0  0  0  0  0  0  0  0
  -25.4820    8.3312   -0.5975 N   0  0  0  0  0  0  0  0  0  0  0  0
  -24.2645    8.0525   -1.0398 N   0  0  0  0  0  0  0  0  0  0  0  0
  -23.3620    8.3629   -0.1289 N   0  0  0  0  0  0  0  0  0  0  0  0
  -14.2467   10.2599   -2.3346 N   0  0  0  0  0  0  0  0  0  0  0  0
  -13.1446   10.3086   -3.0529 N   0  0  0  0  0  0  0  0  0  0  0  0
  -12.0882    9.9990   -2.2991 N   0  0  0  0  0  0  0  0  0  0  0  0
  -19.5769    7.3405   -1.5325 O   0  0  0  0  0  0  0  0  0  0  0  0
  -22.1303    6.0410   -1.2908 O   0  0  0  0  0  0  0  0  0  0  0  0
  -18.0864    5.3250   -0.1504 O   0  0  0  0  0  0  0  0  0  0  0  0
  -21.9361    9.9964   -1.8589 O   0  0  0  0  0  0  0  0  0  0  0  0
  -16.5791    8.7892   -1.3320 O   0  0  0  0  0  0  0  0  0  0  0  0
  -19.0194    9.7180   -2.5947 S   0  0  0  0  0  0  0  0  0  0  0  0
  -12.5203    9.7430   -1.0586 C   0  0  0  0  0  0  0  0  0  0  0  0
  -10.0629    8.6498    2.1922 C   0  0  0  0  0  0  0  0  0  0  0  0
  -12.0180    8.2866    0.8592 C   0  0  0  0  0  0  0  0  0  0  0  0
   -8.5622   10.4097    1.7128 F   0  0  0  0  0  0  0  0  0  0  0  0
 17  1  1  0
 18  1  1  0
  1 31  1  6
  2 19  1  0
  2 30  1  0
  2 35  1  6
 21  3  1  0
  3 35  1  0
  4 21  1  0
 27  4  1  0
  5  6  2  0
 36  5  1  0
  5 38  1  0
  6  7  1  0
  7 37  2  0
  7 39  1  0
  8 37  1  0
 38  8  2  0
 10  9  2  0
  9 14  1  0
 10 11  1  0
 15 10  1  0
 11 12  2  0
 12 13  1  0
 14 13  2  0
 14 23  1  0
 16 15  2  0
 15 24  1  0
 26 16  1  0
 17 20  1  6
 30 17  1  0
 19 18  1  0
 18 26  1  6
 19 33  1  1
 20 32  1  0
 21 34  1  6
 22 27  1  0
 22 36  2  0
 24 25  2  0
 25 26  1  0
 27 28  1  0
 28 29  2  0
 29 36  1  0
M  END
$$$$
