
     RDKit          3D

 39 43  0  0  0  0  0  0  0  0999 V2000
  -21.8674    6.5658   -0.4993 C   0  0  1  0  0  0  0  0  0  0  0  0
  -19.6130    8.1880   -0.9264 C   0  0  1  0  0  0  0  0  0  0  0  0
  -16.8783    9.1647   -0.5932 C   0  0  0  0  0  0  0  0  0  0  0  0
  -14.5982    8.8575   -1.5492 C   0  0  0  0  0  0  0  0  0  0  0  0
  -10.1409   11.0437   -1.6133 C   0  0  0  0  0  0  0  0  0  0  0  0
   -9.8948   11.3972   -0.3105 C   0  0  0  0  0  0  0  0  0  0  0  0
   -8.6488   11.8885    0.0934 C   0  0  0  0  0  0  0  0  0  0  0  0
   -7.9047   11.6529   -2.1890 C   0  0  0  0  0  0  0  0  0  0  0  0
  -25.5102   10.6282    3.0626 C   0  0  0  0  0  0  0  0  0  0  0  0
  -25.9729    9.9030    1.9845 C   0  0  0  0  0  0  0  0  0  0  0  0
  -27.3214    9.6545    1.8183 C   0  0  0  0  0  0  0  0  0  0  0  0
  -28.2154   10.1373    2.7413 C   0  0  0  0  0  0  0  0  0  0  0  0
  -27.7618   10.8632    3.8222 C   0  0  0  0  0  0  0  0  0  0  0  0
  -26.3990   11.1175    3.9953 C   0  0  0  0  0  0  0  0  0  0  0  0
  -24.9805    9.4098    1.0268 C   0  0  0  0  0  0  0  0  0  0  0  0
  -23.7272    8.9093    1.2986 C   0  0  0  0  0  0  0  0  0  0  0  0
  -20.4258    6.1181   -0.6047 C   0  0  1  0  0  0  0  0  0  0  0  0
  -21.8362    8.0113   -0.0088 C   0  0  1  0  0  0  0  0  0  0  0  0
  -21.0046    8.7647   -1.0543 C   0  0  1  0  0  0  0  0  0  0  0  0
  -20.3376    4.6383   -0.9490 C   0  0  0  0  0  0  0  0  0  0  0  0
  -15.6931    9.8653   -1.2259 C   0  0  2  0  0  0  0  0  0  0  0  0
  -12.3650    9.8470   -1.2509 C   0  0  0  0  0  0  0  0  0  0  0  0
  -25.9595   11.8413    5.0753 F   0  0  0  0  0  0  0  0  0  0  0  0
  -25.1028    9.3490   -0.3251 N   0  0  0  0  0  0  0  0  0  0  0  0
  -23.9844    8.8412   -0.8219 N   0  0  0  0  0  0  0  0  0  0  0  0
  -23.1334    8.5663    0.1481 N   0  0  0  0  0  0  0  0  0  0  0  0
  -13.4474    9.5714   -2.0302 N   0  0  0  0  0  0  0  0  0  0  0  0
  -13.1972   10.0747   -3.2206 N   0  0  0  0  0  0  0  0  0  0  0  0
  -11.9983   10.6602   -3.2316 N   0  0  0  0  0  0  0  0  0  0  0  0
  -19.6860    6.8896   -1.4785 O   0  0  0  0  0  0  0  0  0  0  0  0
  -22.5204    6.4744   -1.7243 O   0  0  0  0  0  0  0  0  0  0  0  0
  -19.2650    4.0348   -0.3221 O   0  0  0  0  0  0  0  0  0  0  0  0
  -21.0887   10.1186   -0.9025 O   0  0  0  0  0  0  0  0  0  0  0  0
  -15.2330   10.9186   -0.4735 O   0  0  0  0  0  0  0  0  0  0  0  0
  -18.3217    9.1696   -1.6568 S   0  0  0  0  0  0  0  0  0  0  0  0
  -11.4590   10.5315   -2.0136 C   0  0  0  0  0  0  0  0  0  0  0  0
   -7.6750   12.0049   -0.8678 C   0  0  0  0  0  0  0  0  0  0  0  0
   -9.1470   11.1694   -2.5609 C   0  0  0  0  0  0  0  0  0  0  0  0
   -8.3905   12.2407    1.3709 F   0  0  0  0  0  0  0  0  0  0  0  0
 17  1  1  0
 18  1  1  0
  1 31  1  6
  2 19  1  0
  2 30  1  0
  2 35  1  6
 21  3  1  0
  3 35  1  0
  4 21  1  0
 27  4  1  0
  5  6  2  0
 36  5  1  0
  5 38  1  0
  6  7  1  0
  7 37  2  0
  7 39  1  0
  8 37  1  0
 38  8  2  0
 10  9  2  0
  9 14  1  0
 10 11  1  0
 15 10  1  0
 11 12  2  0
 12 13  1  0
 14 13  2  0
 14 23  1  0
 16 15  2  0
 15 24  1  0
 26 16  1  0
 17 20  1  6
 30 17  1  0
 19 18  1  0
 18 26  1  6
 19 33  1  1
 20 32  1  0
 21 34  1  1
 22 27  1  0
 22 36  2  0
 24 25  2  0
 25 26  1  0
 27 28  1  0
 28 29  2  0
 29 36  1  0
M  END
$$$$
