
     RDKit          3D

 39 43  0  0  0  0  0  0  0  0999 V2000
  -18.2185    7.2281   -0.0098 C   0  0  1  0  0  0  0  0  0  0  0  0
  -19.5895    9.3854   -1.1770 C   0  0  1  0  0  0  0  0  0  0  0  0
  -22.1091   10.3322   -2.3165 C   0  0  0  0  0  0  0  0  0  0  0  0
  -24.3340   11.4535   -2.3174 C   0  0  0  0  0  0  0  0  0  0  0  0
  -27.6509   13.6524    0.6514 C   0  0  0  0  0  0  0  0  0  0  0  0
  -27.0302   14.8214    1.0134 C   0  0  0  0  0  0  0  0  0  0  0  0
  -27.6602   15.7628    1.8343 C   0  0  0  0  0  0  0  0  0  0  0  0
  -29.5740   14.2966    1.9123 C   0  0  0  0  0  0  0  0  0  0  0  0
  -12.0436    7.6547   -0.7394 C   0  0  0  0  0  0  0  0  0  0  0  0
  -12.5392    8.6769    0.0427 C   0  0  0  0  0  0  0  0  0  0  0  0
  -11.7021    9.6394    0.5725 C   0  0  0  0  0  0  0  0  0  0  0  0
  -10.3551    9.5774    0.3160 C   0  0  0  0  0  0  0  0  0  0  0  0
   -9.8508    8.5591   -0.4648 C   0  0  0  0  0  0  0  0  0  0  0  0
  -10.6929    7.5829   -1.0031 C   0  0  0  0  0  0  0  0  0  0  0  0
  -13.9832    8.7004    0.2873 C   0  0  0  0  0  0  0  0  0  0  0  0
  -14.9927    8.4710   -0.6201 C   0  0  0  0  0  0  0  0  0  0  0  0
  -19.5501    7.1843   -0.7273 C   0  0  1  0  0  0  0  0  0  0  0  0
  -17.4600    8.4245   -0.5791 C   0  0  1  0  0  0  0  0  0  0  0  0
  -18.3708    9.6301   -0.3166 C   0  0  1  0  0  0  0  0  0  0  0  0
  -20.3373    5.9402   -0.3416 C   0  0  0  0  0  0  0  0  0  0  0  0
  -23.3542   10.6201   -1.5023 C   0  0  2  0  0  0  0  0  0  0  0  0
  -25.7614   12.8107   -0.8424 C   0  0  0  0  0  0  0  0  0  0  0  0
  -10.1791    6.5741   -1.7789 F   0  0  0  0  0  0  0  0  0  0  0  0
  -14.6131    8.9544    1.4641 N   0  0  0  0  0  0  0  0  0  0  0  0
  -15.9203    8.8790    1.2614 N   0  0  0  0  0  0  0  0  0  0  0  0
  -16.1740    8.5859    0.0003 N   0  0  0  0  0  0  0  0  0  0  0  0
  -25.5199   11.6619   -1.5328 N   0  0  0  0  0  0  0  0  0  0  0  0
  -26.5480   10.8675   -1.3212 N   0  0  0  0  0  0  0  0  0  0  0  0
  -27.4357   11.4639   -0.5234 N   0  0  0  0  0  0  0  0  0  0  0  0
  -20.2942    8.3335   -0.5500 O   0  0  0  0  0  0  0  0  0  0  0  0
  -18.3846    7.3579    1.3654 O   0  0  0  0  0  0  0  0  0  0  0  0
  -21.6087    5.9571   -0.8811 O   0  0  0  0  0  0  0  0  0  0  0  0
  -17.7328   10.8166   -0.5369 O   0  0  0  0  0  0  0  0  0  0  0  0
  -23.0737   11.1832   -0.2810 O   0  0  0  0  0  0  0  0  0  0  0  0
  -20.6083   10.8153   -1.4629 S   0  0  0  0  0  0  0  0  0  0  0  0
  -26.9675   12.6780   -0.2107 C   0  0  0  0  0  0  0  0  0  0  0  0
  -28.9305   15.4722    2.2673 C   0  0  0  0  0  0  0  0  0  0  0  0
  -28.9271   13.3827    1.0988 C   0  0  0  0  0  0  0  0  0  0  0  0
  -27.0634   16.9175    2.1995 F   0  0  0  0  0  0  0  0  0  0  0  0
 17  1  1  0
 18  1  1  0
  1 31  1  1
  2 19  1  0
  2 30  1  0
  2 35  1  1
 21  3  1  0
  3 35  1  0
  4 21  1  0
 27  4  1  0
  5  6  2  0
 36  5  1  0
  5 38  1  0
  6  7  1  0
  7 37  2  0
  7 39  1  0
  8 37  1  0
 38  8  2  0
 10  9  2  0
  9 14  1  0
 10 11  1  0
 15 10  1  0
 11 12  2  0
 12 13  1  0
 14 13  2  0
 14 23  1  0
 16 15  2  0
 15 24  1  0
 26 16  1  0
 17 20  1  1
 30 17  1  0
 19 18  1  0
 18 26  1  1
 19 33  1  6
 20 32  1  0
 21 34  1  1
 22 27  1  0
 22 36  2  0
 24 25  2  0
 25 26  1  0
 27 28  1  0
 28 29  2  0
 29 36  1  0
M  END
$$$$
