
     RDKit          3D

 39 43  0  0  0  0  0  0  0  0999 V2000
  -23.1854    9.3077   -2.4155 C   0  0  1  0  0  0  0  0  0  0  0  0
  -21.3287    7.9374   -1.3335 C   0  0  1  0  0  0  0  0  0  0  0  0
  -18.6471    6.6697   -1.6913 C   0  0  0  0  0  0  0  0  0  0  0  0
  -16.1104    6.4644   -1.7469 C   0  0  0  0  0  0  0  0  0  0  0  0
  -12.1901    8.5757    0.5068 C   0  0  0  0  0  0  0  0  0  0  0  0
  -12.4299    8.3417    1.8364 C   0  0  0  0  0  0  0  0  0  0  0  0
  -11.4687    8.6303    2.7603 C   0  0  0  0  0  0  0  0  0  0  0  0
  -10.0344    9.3819    1.0484 C   0  0  0  0  0  0  0  0  0  0  0  0
  -28.3670   10.2151    2.1008 C   0  0  0  0  0  0  0  0  0  0  0  0
  -27.0830    9.7165    2.1632 C   0  0  0  0  0  0  0  0  0  0  0  0
  -26.7214    9.1325    3.3565 C   0  0  0  0  0  0  0  0  0  0  0  0
  -27.5875    9.0513    4.4221 C   0  0  0  0  0  0  0  0  0  0  0  0
  -28.8834    9.5682    4.3239 C   0  0  0  0  0  0  0  0  0  0  0  0
  -29.2655   10.1564    3.1385 C   0  0  0  0  0  0  0  0  0  0  0  0
  -26.1686    9.8120    1.0343 C   0  0  0  0  0  0  0  0  0  0  0  0
  -25.3817    8.7715    0.5969 C   0  0  0  0  0  0  0  0  0  0  0  0
  -21.9183   10.0824   -2.0304 C   0  0  1  0  0  0  0  0  0  0  0  0
  -23.7048    8.4959   -1.2894 C   0  0  1  0  0  0  0  0  0  0  0  0
  -22.6013    7.8664   -0.4820 C   0  0  1  0  0  0  0  0  0  0  0  0
  -22.2578   11.2081   -1.0784 C   0  0  0  0  0  0  0  0  0  0  0  0
  -17.3242    7.2588   -1.4159 C   0  0  2  0  0  0  0  0  0  0  0  0
  -14.1909    7.2970   -0.3096 C   0  0  0  0  0  0  0  0  0  0  0  0
  -30.5172   10.6643    3.0205 F   0  0  0  0  0  0  0  0  0  0  0  0
  -25.9099   10.8404    0.2261 N   0  0  0  0  0  0  0  0  0  0  0  0
  -25.0067   10.4624   -0.6731 N   0  0  0  0  0  0  0  0  0  0  0  0
  -24.6674    9.1718   -0.4537 N   0  0  0  0  0  0  0  0  0  0  0  0
  -14.9397    7.2937   -1.3991 N   0  0  0  0  0  0  0  0  0  0  0  0
  -14.4597    8.2140   -2.2122 N   0  0  0  0  0  0  0  0  0  0  0  0
  -13.4159    8.8149   -1.6748 N   0  0  0  0  0  0  0  0  0  0  0  0
  -20.9396    9.2561   -1.5576 O   0  0  0  0  0  0  0  0  0  0  0  0
  -24.0550   10.2527   -2.9319 O   0  0  0  0  0  0  0  0  0  0  0  0
  -22.0414   12.4537   -1.6559 O   0  0  0  0  0  0  0  0  0  0  0  0
  -22.8580    6.5201   -0.2717 O   0  0  0  0  0  0  0  0  0  0  0  0
  -17.2164    7.7061   -0.0728 O   0  0  0  0  0  0  0  0  0  0  0  0
  -20.0037    6.9967   -0.5999 S   0  0  0  0  0  0  0  0  0  0  0  0
  -13.2091    8.2640   -0.4650 C   0  0  0  0  0  0  0  0  0  0  0  0
  -10.2597    9.1521    2.3937 C   0  0  0  0  0  0  0  0  0  0  0  0
  -10.9949    9.0951    0.1090 C   0  0  0  0  0  0  0  0  0  0  0  0
  -11.7037    8.4003    4.0746 F   0  0  0  0  0  0  0  0  0  0  0  0
 17  1  1  0
 18  1  1  0
  1 31  1  1
  2 19  1  0
  2 30  1  0
  2 35  1  1
 21  3  1  0
  3 35  1  6
  4 21  1  0
  4 27  1  6
  5  6  2  0
 36  5  1  0
  5 38  1  0
  6  7  1  0
  7 37  2  0
  7 39  1  0
  8 37  1  0
 38  8  2  0
 10  9  2  0
  9 14  1  0
 10 11  1  0
 15 10  1  0
 11 12  2  0
 12 13  1  0
 14 13  2  0
 14 23  1  0
 16 15  2  0
 15 24  1  0
 26 16  1  0
 17 20  1  0
 17 30  1  1
 19 18  1  0
 18 26  1  1
 19 33  1  6
 20 32  1  6
 21 34  1  1
 22 27  1  0
 22 36  2  0
 24 25  2  0
 25 26  1  0
 27 28  1  0
 28 29  2  0
 29 36  1  0
M  END
$$$$
