
     RDKit          3D

 39 43  0  0  0  0  0  0  0  0999 V2000
  -21.7480    7.3775   -0.3819 C   0  0  1  0  0  0  0  0  0  0  0  0
  -20.0874    8.9323   -1.5313 C   0  0  1  0  0  0  0  0  0  0  0  0
  -17.2517    9.3945   -2.3504 C   0  0  0  0  0  0  0  0  0  0  0  0
  -15.4748   11.1950   -2.6348 C   0  0  0  0  0  0  0  0  0  0  0  0
  -12.4895    9.2227    0.8441 C   0  0  0  0  0  0  0  0  0  0  0  0
  -12.6038    8.8218    2.1504 C   0  0  0  0  0  0  0  0  0  0  0  0
  -11.5624    8.1839    2.7580 C   0  0  0  0  0  0  0  0  0  0  0  0
  -10.2965    8.3414    0.7768 C   0  0  0  0  0  0  0  0  0  0  0  0
  -25.7098    9.5217    3.9360 C   0  0  0  0  0  0  0  0  0  0  0  0
  -25.9749    9.8341    2.6194 C   0  0  0  0  0  0  0  0  0  0  0  0
  -27.2709   10.2040    2.3379 C   0  0  0  0  0  0  0  0  0  0  0  0
  -28.2427   10.2586    3.3099 C   0  0  0  0  0  0  0  0  0  0  0  0
  -27.9384    9.9345    4.6361 C   0  0  0  0  0  0  0  0  0  0  0  0
  -26.6474    9.5622    4.9393 C   0  0  0  0  0  0  0  0  0  0  0  0
  -24.9438    9.7673    1.5938 C   0  0  0  0  0  0  0  0  0  0  0  0
  -23.7524    9.0968    1.7491 C   0  0  0  0  0  0  0  0  0  0  0  0
  -21.8653    7.4722   -1.9087 C   0  0  1  0  0  0  0  0  0  0  0  0
  -21.7328    8.7139    0.2588 C   0  0  1  0  0  0  0  0  0  0  0  0
  -20.9487    9.7213   -0.5388 C   0  0  1  0  0  0  0  0  0  0  0  0
  -23.2529    7.9275   -2.3033 C   0  0  0  0  0  0  0  0  0  0  0  0
  -16.2327   10.0435   -3.1949 C   0  0  2  0  0  0  0  0  0  0  0  0
  -13.7289   10.0910   -1.1595 C   0  0  0  0  0  0  0  0  0  0  0  0
  -26.3295    9.2436    6.2184 F   0  0  0  0  0  0  0  0  0  0  0  0
  -24.9207   10.2893    0.3671 N   0  0  0  0  0  0  0  0  0  0  0  0
  -23.7724    9.9613   -0.2169 N   0  0  0  0  0  0  0  0  0  0  0  0
  -23.0321    9.2160    0.6350 N   0  0  0  0  0  0  0  0  0  0  0  0
  -14.8615   10.7390   -1.3718 N   0  0  0  0  0  0  0  0  0  0  0  0
  -15.4258   10.9452   -0.1981 N   0  0  0  0  0  0  0  0  0  0  0  0
  -14.6847   10.4454    0.7717 N   0  0  0  0  0  0  0  0  0  0  0  0
  -20.8742    8.2403   -2.4493 O   0  0  0  0  0  0  0  0  0  0  0  0
  -22.7651    6.5271    0.0159 O   0  0  0  0  0  0  0  0  0  0  0  0
  -23.8088    7.1026   -3.2741 O   0  0  0  0  0  0  0  0  0  0  0  0
  -20.0695   10.4137    0.2797 O   0  0  0  0  0  0  0  0  0  0  0  0
  -16.7593   10.4233   -4.4574 O   0  0  0  0  0  0  0  0  0  0  0  0
  -18.9194    9.9922   -2.3625 S   0  0  0  0  0  0  0  0  0  0  0  0
  -13.5962    9.8925    0.2066 C   0  0  0  0  0  0  0  0  0  0  0  0
  -10.3949    7.9303    2.0939 C   0  0  0  0  0  0  0  0  0  0  0  0
  -11.3388    8.9846    0.1544 C   0  0  0  0  0  0  0  0  0  0  0  0
  -11.6731    7.7874    4.0488 F   0  0  0  0  0  0  0  0  0  0  0  0
 17  1  1  0
 18  1  1  0
  1 31  1  1
  2 19  1  0
  2 30  1  0
  2 35  1  6
 21  3  1  0
  3 35  1  6
  4 21  1  0
  4 27  1  6
  5  6  2  0
 36  5  1  0
  5 38  1  0
  6  7  1  0
  7 37  2  0
  7 39  1  0
  8 37  1  0
 38  8  2  0
 10  9  2  0
  9 14  1  0
 10 11  1  0
 15 10  1  0
 11 12  2  0
 12 13  1  0
 14 13  2  0
 14 23  1  0
 16 15  2  0
 15 24  1  0
 26 16  1  0
 17 20  1  0
 17 30  1  1
 19 18  1  0
 18 26  1  6
 19 33  1  1
 20 32  1  6
 21 34  1  6
 22 27  1  0
 22 36  2  0
 24 25  2  0
 25 26  1  0
 27 28  1  0
 28 29  2  0
 29 36  1  0
M  END
$$$$
