
     RDKit          3D

 39 43  0  0  0  0  0  0  0  0999 V2000
  -25.3558    9.3951   -1.3188 C   0  0  1  0  0  0  0  0  0  0  0  0
  -22.5611    9.2320   -1.5620 C   0  0  1  0  0  0  0  0  0  0  0  0
  -19.9767    9.3250   -0.1998 C   0  0  0  0  0  0  0  0  0  0  0  0
  -17.6426    9.9179   -0.8383 C   0  0  0  0  0  0  0  0  0  0  0  0
  -13.3730    8.6795    1.3726 C   0  0  0  0  0  0  0  0  0  0  0  0
  -13.6909    8.6708    2.7074 C   0  0  0  0  0  0  0  0  0  0  0  0
  -12.7252    8.4280    3.6899 C   0  0  0  0  0  0  0  0  0  0  0  0
  -11.0988    8.2020    1.9228 C   0  0  0  0  0  0  0  0  0  0  0  0
  -27.2570    8.9422    5.1946 C   0  0  0  0  0  0  0  0  0  0  0  0
  -26.6672    8.1348    4.2446 C   0  0  0  0  0  0  0  0  0  0  0  0
  -26.6264    6.7630    4.4007 C   0  0  0  0  0  0  0  0  0  0  0  0
  -27.1820    6.1943    5.5196 C   0  0  0  0  0  0  0  0  0  0  0  0
  -27.7737    6.9937    6.4746 C   0  0  0  0  0  0  0  0  0  0  0  0
  -27.8177    8.3817    6.3218 C   0  0  0  0  0  0  0  0  0  0  0  0
  -26.0889    8.7884    3.0682 C   0  0  0  0  0  0  0  0  0  0  0  0
  -25.5323    8.1872    1.9620 C   0  0  0  0  0  0  0  0  0  0  0  0
  -24.5628    9.1085   -2.5753 C   0  0  1  0  0  0  0  0  0  0  0  0
  -24.4916    8.9341   -0.1477 C   0  0  1  0  0  0  0  0  0  0  0  0
  -23.1887    9.7321   -0.2808 C   0  0  1  0  0  0  0  0  0  0  0  0
  -25.3895    9.3965   -3.8202 C   0  0  0  0  0  0  0  0  0  0  0  0
  -18.5728    8.7930   -0.4045 C   0  0  2  0  0  0  0  0  0  0  0  0
  -15.6850    9.3816    0.5529 C   0  0  0  0  0  0  0  0  0  0  0  0
  -28.4095    9.1670    7.2793 F   0  0  0  0  0  0  0  0  0  0  0  0
  -25.9881   10.1235    2.8366 N   0  0  0  0  0  0  0  0  0  0  0  0
  -25.4047   10.2990    1.6600 N   0  0  0  0  0  0  0  0  0  0  0  0
  -25.1187    9.1343    1.1101 N   0  0  0  0  0  0  0  0  0  0  0  0
  -16.2846    9.4803   -0.6660 N   0  0  0  0  0  0  0  0  0  0  0  0
  -15.3927    9.1086   -1.5600 N   0  0  0  0  0  0  0  0  0  0  0  0
  -14.2481    8.7768   -0.9599 N   0  0  0  0  0  0  0  0  0  0  0  0
  -23.3490    9.7655   -2.6063 O   0  0  0  0  0  0  0  0  0  0  0  0
  -25.6596   10.7480   -1.2054 O   0  0  0  0  0  0  0  0  0  0  0  0
  -25.0111    8.5923   -4.8775 O   0  0  0  0  0  0  0  0  0  0  0  0
  -22.4033    9.6270    0.8306 O   0  0  0  0  0  0  0  0  0  0  0  0
  -18.5299    7.7167   -1.2572 O   0  0  0  0  0  0  0  0  0  0  0  0
  -20.8325    9.6076   -1.7497 S   0  0  0  0  0  0  0  0  0  0  0  0
  -14.4053    8.9389    0.3592 C   0  0  0  0  0  0  0  0  0  0  0  0
  -11.4393    8.1972    3.2668 C   0  0  0  0  0  0  0  0  0  0  0  0
  -12.0746    8.4451    0.9720 C   0  0  0  0  0  0  0  0  0  0  0  0
  -13.0214    8.4159    5.0071 F   0  0  0  0  0  0  0  0  0  0  0  0
 17  1  1  0
 18  1  1  0
  1 31  1  1
  2 19  1  0
  2 30  1  0
  2 35  1  6
 21  3  1  0
  3 35  1  0
  4 21  1  0
 27  4  1  0
  5  6  2  0
 36  5  1  0
  5 38  1  0
  6  7  1  0
  7 37  2  0
  7 39  1  0
  8 37  1  0
 38  8  2  0
 10  9  2  0
  9 14  1  0
 10 11  1  0
 15 10  1  0
 11 12  2  0
 12 13  1  0
 14 13  2  0
 14 23  1  0
 16 15  2  0
 15 24  1  0
 26 16  1  0
 17 20  1  6
 30 17  1  0
 19 18  1  0
 18 26  1  1
 19 33  1  1
 20 32  1  0
 21 34  1  6
 22 27  1  0
 22 36  2  0
 24 25  2  0
 25 26  1  0
 27 28  1  0
 28 29  2  0
 29 36  1  0
M  END
$$$$
