
     RDKit          3D

 39 43  0  0  0  0  0  0  0  0999 V2000
  -21.0841    7.3579   -0.2695 C   0  0  1  0  0  0  0  0  0  0  0  0
  -19.7420    9.0542   -2.0631 C   0  0  1  0  0  0  0  0  0  0  0  0
  -17.9788   11.1682   -3.0459 C   0  0  0  0  0  0  0  0  0  0  0  0
  -16.4345    9.7665   -1.6828 C   0  0  0  0  0  0  0  0  0  0  0  0
  -11.9079    8.8458    0.1375 C   0  0  0  0  0  0  0  0  0  0  0  0
  -12.0665    8.7607    1.4978 C   0  0  0  0  0  0  0  0  0  0  0  0
  -10.9682    8.7005    2.3620 C   0  0  0  0  0  0  0  0  0  0  0  0
   -9.5372    8.8159    0.4236 C   0  0  0  0  0  0  0  0  0  0  0  0
  -25.7499    9.7456    2.8068 C   0  0  0  0  0  0  0  0  0  0  0  0
  -26.0325    9.7790    1.4572 C   0  0  0  0  0  0  0  0  0  0  0  0
  -27.2514   10.2356    0.9950 C   0  0  0  0  0  0  0  0  0  0  0  0
  -28.1967   10.6632    1.8937 C   0  0  0  0  0  0  0  0  0  0  0  0
  -27.9229   10.6333    3.2448 C   0  0  0  0  0  0  0  0  0  0  0  0
  -26.6918   10.1725    3.7177 C   0  0  0  0  0  0  0  0  0  0  0  0
  -24.9916    9.3131    0.5379 C   0  0  0  0  0  0  0  0  0  0  0  0
  -23.6274    9.4010    0.6996 C   0  0  0  0  0  0  0  0  0  0  0  0
  -19.5969    7.4040   -0.5450 C   0  0  1  0  0  0  0  0  0  0  0  0
  -21.6263    8.7487   -0.5896 C   0  0  1  0  0  0  0  0  0  0  0  0
  -21.2523    8.9897   -2.0573 C   0  0  1  0  0  0  0  0  0  0  0  0
  -18.9229    6.1068   -0.1219 C   0  0  0  0  0  0  0  0  0  0  0  0
  -16.5365   10.7523   -2.8390 C   0  0  2  0  0  0  0  0  0  0  0  0
  -14.2996    9.4696   -0.4957 C   0  0  0  0  0  0  0  0  0  0  0  0
  -26.4309   10.1475    5.0649 F   0  0  0  0  0  0  0  0  0  0  0  0
  -25.1693    8.6992   -0.6611 N   0  0  0  0  0  0  0  0  0  0  0  0
  -23.9767    8.4400   -1.1770 N   0  0  0  0  0  0  0  0  0  0  0  0
  -23.0240    8.8584   -0.3659 N   0  0  0  0  0  0  0  0  0  0  0  0
  -15.0784    9.2981   -1.5998 N   0  0  0  0  0  0  0  0  0  0  0  0
  -14.3464    8.6562   -2.4858 N   0  0  0  0  0  0  0  0  0  0  0  0
  -13.1317    8.4115   -1.9909 N   0  0  0  0  0  0  0  0  0  0  0  0
  -19.3027    7.7277   -1.8545 O   0  0  0  0  0  0  0  0  0  0  0  0
  -21.7164    6.3912   -1.0451 O   0  0  0  0  0  0  0  0  0  0  0  0
  -17.5885    6.0891   -0.4782 O   0  0  0  0  0  0  0  0  0  0  0  0
  -21.8826   10.0831   -2.5776 O   0  0  0  0  0  0  0  0  0  0  0  0
  -15.6888   11.8235   -2.6933 O   0  0  0  0  0  0  0  0  0  0  0  0
  -19.0258    9.7906   -3.5155 S   0  0  0  0  0  0  0  0  0  0  0  0
  -13.0778    8.9095   -0.7499 C   0  0  0  0  0  0  0  0  0  0  0  0
   -9.7176    8.7301    1.7956 C   0  0  0  0  0  0  0  0  0  0  0  0
  -10.6419    8.8740   -0.4082 C   0  0  0  0  0  0  0  0  0  0  0  0
  -11.1071    8.6165    3.7024 F   0  0  0  0  0  0  0  0  0  0  0  0
 17  1  1  0
 18  1  1  0
  1 31  1  6
  2 19  1  0
  2 30  1  0
  2 35  1  6
 21  3  1  0
  3 35  1  0
  4 21  1  0
 27  4  1  0
  5  6  2  0
 36  5  1  0
  5 38  1  0
  6  7  1  0
  7 37  2  0
  7 39  1  0
  8 37  1  0
 38  8  2  0
 10  9  2  0
  9 14  1  0
 10 11  1  0
 15 10  1  0
 11 12  2  0
 12 13  1  0
 14 13  2  0
 14 23  1  0
 16 15  2  0
 15 24  1  0
 26 16  1  0
 17 20  1  6
 30 17  1  0
 19 18  1  0
 18 26  1  6
 19 33  1  1
 20 32  1  0
 21 34  1  1
 22 27  1  0
 22 36  2  0
 24 25  2  0
 25 26  1  0
 27 28  1  0
 28 29  2  0
 29 36  1  0
M  END
$$$$
