
     RDKit          3D

 39 43  0  0  0  0  0  0  0  0999 V2000
  -21.8677    9.6886   -3.2537 C   0  0  1  0  0  0  0  0  0  0  0  0
  -19.3947   11.0103   -3.0708 C   0  0  1  0  0  0  0  0  0  0  0  0
  -16.8937   12.1087   -4.1110 C   0  0  0  0  0  0  0  0  0  0  0  0
  -15.0793   10.5403   -3.4361 C   0  0  0  0  0  0  0  0  0  0  0  0
  -11.7464    9.9145    0.1904 C   0  0  0  0  0  0  0  0  0  0  0  0
  -10.4252   10.2126    0.4108 C   0  0  0  0  0  0  0  0  0  0  0  0
   -9.8119    9.9600    1.6424 C   0  0  0  0  0  0  0  0  0  0  0  0
  -11.9216    9.0911    2.4251 C   0  0  0  0  0  0  0  0  0  0  0  0
  -20.6724    5.0166    1.2018 C   0  0  0  0  0  0  0  0  0  0  0  0
  -21.8637    5.6990    1.0708 C   0  0  0  0  0  0  0  0  0  0  0  0
  -23.0333    5.2019    1.6120 C   0  0  0  0  0  0  0  0  0  0  0  0
  -23.0092    4.0094    2.2913 C   0  0  0  0  0  0  0  0  0  0  0  0
  -21.8226    3.3204    2.4271 C   0  0  0  0  0  0  0  0  0  0  0  0
  -20.6368    3.8184    1.8818 C   0  0  0  0  0  0  0  0  0  0  0  0
  -21.8383    6.9671    0.3381 C   0  0  0  0  0  0  0  0  0  0  0  0
  -21.1029    7.2740   -0.7843 C   0  0  0  0  0  0  0  0  0  0  0  0
  -21.1285   10.4024   -4.3644 C   0  0  1  0  0  0  0  0  0  0  0  0
  -20.8092    9.2379   -2.2500 C   0  0  1  0  0  0  0  0  0  0  0  0
  -20.0970   10.5271   -1.8223 C   0  0  1  0  0  0  0  0  0  0  0  0
  -22.0729   10.7719   -5.4992 C   0  0  0  0  0  0  0  0  0  0  0  0
  -15.4774   12.0028   -3.5833 C   0  0  2  0  0  0  0  0  0  0  0  0
  -13.6965   10.1573   -1.4370 C   0  0  0  0  0  0  0  0  0  0  0  0
  -19.4618    3.1235    2.0235 F   0  0  0  0  0  0  0  0  0  0  0  0
  -22.5395    8.0952    0.6240 N   0  0  0  0  0  0  0  0  0  0  0  0
  -22.2343    9.0153   -0.2793 N   0  0  0  0  0  0  0  0  0  0  0  0
  -21.3620    8.5373   -1.1459 N   0  0  0  0  0  0  0  0  0  0  0  0
  -13.8151   10.4769   -2.7556 N   0  0  0  0  0  0  0  0  0  0  0  0
  -12.5970   10.6915   -3.2061 N   0  0  0  0  0  0  0  0  0  0  0  0
  -11.7061   10.5216   -2.2274 N   0  0  0  0  0  0  0  0  0  0  0  0
  -20.4150   11.4970   -3.9183 O   0  0  0  0  0  0  0  0  0  0  0  0
  -22.8015   10.5214   -2.6455 O   0  0  0  0  0  0  0  0  0  0  0  0
  -21.5312   10.4614   -6.7312 O   0  0  0  0  0  0  0  0  0  0  0  0
  -19.2894   10.3354   -0.7387 O   0  0  0  0  0  0  0  0  0  0  0  0
  -15.2846   12.7193   -2.4271 O   0  0  0  0  0  0  0  0  0  0  0  0
  -18.1072   12.2064   -2.7948 S   0  0  0  0  0  0  0  0  0  0  0  0
  -12.3678   10.1877   -1.1131 C   0  0  0  0  0  0  0  0  0  0  0  0
  -10.5853    9.3992    2.6289 C   0  0  0  0  0  0  0  0  0  0  0  0
  -12.5029    9.3518    1.1965 C   0  0  0  0  0  0  0  0  0  0  0  0
   -8.5134   10.2473    1.8754 F   0  0  0  0  0  0  0  0  0  0  0  0
 17  1  1  0
 18  1  1  0
  1 31  1  1
  2 19  1  0
  2 30  1  0
  2 35  1  1
 21  3  1  0
  3 35  1  0
  4 21  1  0
 27  4  1  0
  5  6  2  0
 36  5  1  0
  5 38  1  0
  6  7  1  0
  7 37  2  0
  7 39  1  0
  8 37  1  0
 38  8  2  0
 10  9  2  0
  9 14  1  0
 10 11  1  0
 15 10  1  0
 11 12  2  0
 12 13  1  0
 14 13  2  0
 14 23  1  0
 16 15  2  0
 15 24  1  0
 26 16  1  0
 17 20  1  6
 30 17  1  0
 19 18  1  0
 18 26  1  1
 19 33  1  1
 20 32  1  0
 21 34  1  1
 22 27  1  0
 22 36  2  0
 24 25  2  0
 25 26  1  0
 27 28  1  0
 28 29  2  0
 29 36  1  0
M  END
$$$$
