
     RDKit          3D

 39 43  0  0  0  0  0  0  0  0999 V2000
  -18.5111    6.7639    0.0479 C   0  0  1  0  0  0  0  0  0  0  0  0
  -20.1904    8.8732   -0.7436 C   0  0  1  0  0  0  0  0  0  0  0  0
  -22.8316    9.9713   -1.3452 C   0  0  0  0  0  0  0  0  0  0  0  0
  -24.9040   11.1237   -0.5808 C   0  0  0  0  0  0  0  0  0  0  0  0
  -27.9512    9.2818    2.8795 C   0  0  0  0  0  0  0  0  0  0  0  0
  -27.3849    8.0736    3.1994 C   0  0  0  0  0  0  0  0  0  0  0  0
  -27.9900    7.1970    4.1062 C   0  0  0  0  0  0  0  0  0  0  0  0
  -29.7666    8.8092    4.3572 C   0  0  0  0  0  0  0  0  0  0  0  0
  -13.2230    8.8693    1.2150 C   0  0  0  0  0  0  0  0  0  0  0  0
  -13.3007    8.8553   -0.1620 C   0  0  0  0  0  0  0  0  0  0  0  0
  -12.2568    9.3170   -0.9398 C   0  0  0  0  0  0  0  0  0  0  0  0
  -11.1237    9.7975   -0.3321 C   0  0  0  0  0  0  0  0  0  0  0  0
  -11.0372    9.8153    1.0438 C   0  0  0  0  0  0  0  0  0  0  0  0
  -12.0900    9.3496    1.8354 C   0  0  0  0  0  0  0  0  0  0  0  0
  -14.5298    8.3326   -0.7634 C   0  0  0  0  0  0  0  0  0  0  0  0
  -15.8182    8.4759   -0.3006 C   0  0  0  0  0  0  0  0  0  0  0  0
  -20.0243    6.7753    0.0438 C   0  0  1  0  0  0  0  0  0  0  0  0
  -18.0685    7.7613   -1.0199 C   0  0  1  0  0  0  0  0  0  0  0  0
  -18.7016    9.0939   -0.6014 C   0  0  1  0  0  0  0  0  0  0  0  0
  -20.5808    5.7073    0.9743 C   0  0  0  0  0  0  0  0  0  0  0  0
  -23.8501   10.0824   -0.2289 C   0  0  2  0  0  0  0  0  0  0  0  0
  -26.2362    9.9184    1.1008 C   0  0  0  0  0  0  0  0  0  0  0  0
  -11.9923    9.3725    3.2041 F   0  0  0  0  0  0  0  0  0  0  0  0
  -14.6399    7.5998   -1.9023 N   0  0  0  0  0  0  0  0  0  0  0  0
  -15.9214    7.3268   -2.0995 N   0  0  0  0  0  0  0  0  0  0  0  0
  -16.6564    7.8501   -1.1370 N   0  0  0  0  0  0  0  0  0  0  0  0
  -25.9648   11.0452    0.3856 N   0  0  0  0  0  0  0  0  0  0  0  0
  -26.8349   11.9565    0.7668 N   0  0  0  0  0  0  0  0  0  0  0  0
  -27.6505   11.4558    1.6966 N   0  0  0  0  0  0  0  0  0  0  0  0
  -20.5531    8.0199    0.3224 O   0  0  0  0  0  0  0  0  0  0  0  0
  -18.0021    7.1164    1.2938 O   0  0  0  0  0  0  0  0  0  0  0  0
  -21.8975    5.4131    0.6784 O   0  0  0  0  0  0  0  0  0  0  0  0
  -18.2004   10.1482   -1.3090 O   0  0  0  0  0  0  0  0  0  0  0  0
  -23.2740   10.3106    0.9972 O   0  0  0  0  0  0  0  0  0  0  0  0
  -21.1698   10.3575   -0.7941 S   0  0  0  0  0  0  0  0  0  0  0  0
  -27.2969   10.1850    1.9223 C   0  0  0  0  0  0  0  0  0  0  0  0
  -29.1790    7.5925    4.6679 C   0  0  0  0  0  0  0  0  0  0  0  0
  -29.1459    9.6572    3.4566 C   0  0  0  0  0  0  0  0  0  0  0  0
  -27.4460    6.0050    4.4316 F   0  0  0  0  0  0  0  0  0  0  0  0
 17  1  1  0
 18  1  1  0
  1 31  1  1
  2 19  1  0
  2 30  1  0
  2 35  1  1
 21  3  1  0
  3 35  1  0
  4 21  1  0
 27  4  1  0
  5  6  2  0
 36  5  1  0
  5 38  1  0
  6  7  1  0
  7 37  2  0
  7 39  1  0
  8 37  1  0
 38  8  2  0
 10  9  2  0
  9 14  1  0
 10 11  1  0
 15 10  1  0
 11 12  2  0
 12 13  1  0
 14 13  2  0
 14 23  1  0
 16 15  2  0
 15 24  1  0
 26 16  1  0
 17 20  1  1
 30 17  1  0
 19 18  1  0
 18 26  1  1
 19 33  1  6
 20 32  1  0
 21 34  1  1
 22 27  1  0
 22 36  2  0
 24 25  2  0
 25 26  1  0
 27 28  1  0
 28 29  2  0
 29 36  1  0
M  END
$$$$
