
     RDKit          3D

 39 43  0  0  0  0  0  0  0  0999 V2000
  -19.1931    7.4437   -1.4803 C   0  0  1  0  0  0  0  0  0  0  0  0
  -20.6567    9.5269   -1.3623 C   0  0  1  0  0  0  0  0  0  0  0  0
  -23.2143   10.8296   -2.1916 C   0  0  0  0  0  0  0  0  0  0  0  0
  -24.4032    9.0030   -0.8765 C   0  0  0  0  0  0  0  0  0  0  0  0
  -27.2596    9.1076    3.2143 C   0  0  0  0  0  0  0  0  0  0  0  0
  -27.4748    7.9712    3.9509 C   0  0  0  0  0  0  0  0  0  0  0  0
  -27.8717    8.0711    5.2522 C   0  0  0  0  0  0  0  0  0  0  0  0
  -27.8419   10.4218    5.0916 C   0  0  0  0  0  0  0  0  0  0  0  0
  -12.5754    8.4488   -0.0866 C   0  0  0  0  0  0  0  0  0  0  0  0
  -13.6040    7.9009   -0.8236 C   0  0  0  0  0  0  0  0  0  0  0  0
  -13.2719    6.8210   -1.6105 C   0  0  0  0  0  0  0  0  0  0  0  0
  -11.9922    6.3187   -1.6593 C   0  0  0  0  0  0  0  0  0  0  0  0
  -10.9726    6.8998   -0.8983 C   0  0  0  0  0  0  0  0  0  0  0  0
  -11.2838    7.9811   -0.1038 C   0  0  0  0  0  0  0  0  0  0  0  0
  -14.9548    8.4416   -0.7732 C   0  0  0  0  0  0  0  0  0  0  0  0
  -15.9770    8.0247   -1.5946 C   0  0  0  0  0  0  0  0  0  0  0  0
  -19.9964    7.6256   -0.1859 C   0  0  1  0  0  0  0  0  0  0  0  0
  -18.4235    8.6603   -1.8329 C   0  0  1  0  0  0  0  0  0  0  0  0
  -19.1871    9.9242   -1.5410 C   0  0  1  0  0  0  0  0  0  0  0  0
  -19.0695    7.6606    1.0091 C   0  0  0  0  0  0  0  0  0  0  0  0
  -24.4390   10.3360   -1.5365 C   0  0  2  0  0  0  0  0  0  0  0  0
  -25.5288    9.1253    1.3954 C   0  0  0  0  0  0  0  0  0  0  0  0
  -10.3113    8.5604    0.6426 F   0  0  0  0  0  0  0  0  0  0  0  0
  -15.4727    9.3806    0.0192 N   0  0  0  0  0  0  0  0  0  0  0  0
  -16.7554    9.5430   -0.2901 N   0  0  0  0  0  0  0  0  0  0  0  0
  -17.0845    8.7022   -1.2969 N   0  0  0  0  0  0  0  0  0  0  0  0
  -25.5240    8.9627    0.0835 N   0  0  0  0  0  0  0  0  0  0  0  0
  -26.7679    8.7391   -0.2924 N   0  0  0  0  0  0  0  0  0  0  0  0
  -27.5803    8.7528    0.7464 N   0  0  0  0  0  0  0  0  0  0  0  0
  -20.8298    8.7053   -0.2508 O   0  0  0  0  0  0  0  0  0  0  0  0
  -18.4506    6.2900   -1.2966 O   0  0  0  0  0  0  0  0  0  0  0  0
  -19.4774    6.7790    2.0032 O   0  0  0  0  0  0  0  0  0  0  0  0
  -19.1423   10.7833   -2.6284 O   0  0  0  0  0  0  0  0  0  0  0  0
  -25.5562   10.3746   -2.4116 O   0  0  0  0  0  0  0  0  0  0  0  0
  -21.7098   10.9622   -1.2655 S   0  0  0  0  0  0  0  0  0  0  0  0
  -26.8357    8.9947    1.8405 C   0  0  0  0  0  0  0  0  0  0  0  0
  -28.0633    9.2857    5.8491 C   0  0  0  0  0  0  0  0  0  0  0  0
  -27.4419   10.3336    3.7803 C   0  0  0  0  0  0  0  0  0  0  0  0
  -28.0852    6.9496    5.9816 F   0  0  0  0  0  0  0  0  0  0  0  0
 17  1  1  0
 18  1  1  0
  1 31  1  1
  2 19  1  0
  2 30  1  0
  2 35  1  1
 21  3  1  0
  3 35  1  6
  4 21  1  0
  4 27  1  6
  5  6  2  0
 36  5  1  0
  5 38  1  0
  6  7  1  0
  7 37  2  0
  7 39  1  0
  8 37  1  0
 38  8  2  0
 10  9  2  0
  9 14  1  0
 10 11  1  0
 15 10  1  0
 11 12  2  0
 12 13  1  0
 14 13  2  0
 14 23  1  0
 16 15  2  0
 15 24  1  0
 26 16  1  0
 17 20  1  0
 17 30  1  6
 19 18  1  0
 18 26  1  1
 19 33  1  6
 20 32  1  6
 21 34  1  6
 22 27  1  0
 22 36  2  0
 24 25  2  0
 25 26  1  0
 27 28  1  0
 28 29  2  0
 29 36  1  0
M  END
$$$$
