
     RDKit          3D

 39 43  0  0  0  0  0  0  0  0999 V2000
  -18.5981    6.7286   -0.7834 C   0  0  1  0  0  0  0  0  0  0  0  0
  -20.4063    8.8376   -1.2058 C   0  0  1  0  0  0  0  0  0  0  0  0
  -22.6907   10.2666   -2.3383 C   0  0  0  0  0  0  0  0  0  0  0  0
  -24.2240   10.1916   -0.3760 C   0  0  0  0  0  0  0  0  0  0  0  0
  -24.4142   14.9174    1.1348 C   0  0  0  0  0  0  0  0  0  0  0  0
  -23.1838   15.1187    1.7079 C   0  0  0  0  0  0  0  0  0  0  0  0
  -22.8406   16.3395    2.2983 C   0  0  0  0  0  0  0  0  0  0  0  0
  -25.0346   17.1508    1.7093 C   0  0  0  0  0  0  0  0  0  0  0  0
  -13.6486    8.6421    1.2618 C   0  0  0  0  0  0  0  0  0  0  0  0
  -13.5241    8.8267   -0.0993 C   0  0  0  0  0  0  0  0  0  0  0  0
  -12.3310    9.2447   -0.6558 C   0  0  0  0  0  0  0  0  0  0  0  0
  -11.2520    9.4801    0.1592 C   0  0  0  0  0  0  0  0  0  0  0  0
  -11.3674    9.2981    1.5211 C   0  0  0  0  0  0  0  0  0  0  0  0
  -12.5717    8.8755    2.0893 C   0  0  0  0  0  0  0  0  0  0  0  0
  -14.7031    8.5620   -0.9271 C   0  0  0  0  0  0  0  0  0  0  0  0
  -16.0056    8.4082   -0.5090 C   0  0  0  0  0  0  0  0  0  0  0  0
  -20.1049    6.6340   -0.8866 C   0  0  1  0  0  0  0  0  0  0  0  0
  -18.1876    7.9677   -1.5751 C   0  0  1  0  0  0  0  0  0  0  0  0
  -18.9501    9.1254   -0.9191 C   0  0  1  0  0  0  0  0  0  0  0  0
  -20.6159    5.3488   -0.2516 C   0  0  0  0  0  0  0  0  0  0  0  0
  -24.0975    9.9485   -1.8739 C   0  0  2  0  0  0  0  0  0  0  0  0
  -24.0088   12.4766    0.5117 C   0  0  0  0  0  0  0  0  0  0  0  0
  -12.6743    8.6980    3.4464 F   0  0  0  0  0  0  0  0  0  0  0  0
  -14.7429    8.4158   -2.2774 N   0  0  0  0  0  0  0  0  0  0  0  0
  -15.9984    8.1886   -2.6348 N   0  0  0  0  0  0  0  0  0  0  0  0
  -16.7838    8.1797   -1.5748 N   0  0  0  0  0  0  0  0  0  0  0  0
  -24.7100   11.5282   -0.1693 N   0  0  0  0  0  0  0  0  0  0  0  0
  -25.8362   12.0908   -0.5540 N   0  0  0  0  0  0  0  0  0  0  0  0
  -25.8813   13.3602   -0.1455 N   0  0  0  0  0  0  0  0  0  0  0  0
  -20.7490    7.7445   -0.3789 O   0  0  0  0  0  0  0  0  0  0  0  0
  -18.1833    6.8291    0.5407 O   0  0  0  0  0  0  0  0  0  0  0  0
  -21.9823    5.2162   -0.4043 O   0  0  0  0  0  0  0  0  0  0  0  0
  -18.5040   10.3436   -1.3438 O   0  0  0  0  0  0  0  0  0  0  0  0
  -24.5069    8.6889   -2.2388 O   0  0  0  0  0  0  0  0  0  0  0  0
  -21.5025   10.2229   -0.9964 S   0  0  0  0  0  0  0  0  0  0  0  0
  -24.7520   13.6249    0.5221 C   0  0  0  0  0  0  0  0  0  0  0  0
  -23.7861   17.3353    2.2834 C   0  0  0  0  0  0  0  0  0  0  0  0
  -25.3475   15.9325    1.1320 C   0  0  0  0  0  0  0  0  0  0  0  0
  -21.6346   16.5538    2.8663 F   0  0  0  0  0  0  0  0  0  0  0  0
 17  1  1  0
 18  1  1  0
  1 31  1  1
  2 19  1  0
  2 30  1  0
  2 35  1  1
 21  3  1  0
  3 35  1  0
  4 21  1  0
 27  4  1  0
  5  6  2  0
 36  5  1  0
  5 38  1  0
  6  7  1  0
  7 37  2  0
  7 39  1  0
  8 37  1  0
 38  8  2  0
 10  9  2  0
  9 14  1  0
 10 11  1  0
 15 10  1  0
 11 12  2  0
 12 13  1  0
 14 13  2  0
 14 23  1  0
 16 15  2  0
 15 24  1  0
 26 16  1  0
 17 20  1  1
 30 17  1  0
 19 18  1  0
 18 26  1  1
 19 33  1  6
 20 32  1  0
 21 34  1  1
 22 27  1  0
 22 36  2  0
 24 25  2  0
 25 26  1  0
 27 28  1  0
 28 29  2  0
 29 36  1  0
M  END
$$$$
