
     RDKit          3D

 39 43  0  0  0  0  0  0  0  0999 V2000
  -23.4681    7.4254   -1.1983 C   0  0  1  0  0  0  0  0  0  0  0  0
  -21.1657    8.4517   -1.5749 C   0  0  1  0  0  0  0  0  0  0  0  0
  -18.3075    7.9819   -2.3068 C   0  0  0  0  0  0  0  0  0  0  0  0
  -16.4510    9.3184   -1.1899 C   0  0  0  0  0  0  0  0  0  0  0  0
  -11.5582    9.0062   -0.2584 C   0  0  0  0  0  0  0  0  0  0  0  0
  -10.8204    9.4944    0.7892 C   0  0  0  0  0  0  0  0  0  0  0  0
   -9.4658    9.6042    0.6720 C   0  0  0  0  0  0  0  0  0  0  0  0
   -9.5755    8.7469   -1.5202 C   0  0  0  0  0  0  0  0  0  0  0  0
  -27.6107    9.0760    3.3272 C   0  0  0  0  0  0  0  0  0  0  0  0
  -27.1338    9.7058    2.1971 C   0  0  0  0  0  0  0  0  0  0  0  0
  -28.0575   10.4284    1.4757 C   0  0  0  0  0  0  0  0  0  0  0  0
  -29.3759   10.5169    1.8581 C   0  0  0  0  0  0  0  0  0  0  0  0
  -29.8255    9.8645    3.0107 C   0  0  0  0  0  0  0  0  0  0  0  0
  -28.9173    9.1365    3.7472 C   0  0  0  0  0  0  0  0  0  0  0  0
  -25.7388    9.6023    1.7936 C   0  0  0  0  0  0  0  0  0  0  0  0
  -25.2486    8.6037    0.9839 C   0  0  0  0  0  0  0  0  0  0  0  0
  -23.3373    8.3486   -2.4167 C   0  0  1  0  0  0  0  0  0  0  0  0
  -22.9555    8.0609    0.0387 C   0  0  1  0  0  0  0  0  0  0  0  0
  -21.7172    8.8797   -0.2103 C   0  0  1  0  0  0  0  0  0  0  0  0
  -24.3266    9.4892   -2.3222 C   0  0  0  0  0  0  0  0  0  0  0  0
  -17.0069    8.0048   -1.6134 C   0  0  2  0  0  0  0  0  0  0  0  0
  -13.9162    9.3340   -1.0565 C   0  0  0  0  0  0  0  0  0  0  0  0
  -29.3308    8.4957    4.8684 F   0  0  0  0  0  0  0  0  0  0  0  0
  -24.7024   10.3894    2.0838 N   0  0  0  0  0  0  0  0  0  0  0  0
  -23.6175    9.9080    1.4850 N   0  0  0  0  0  0  0  0  0  0  0  0
  -23.9437    8.7922    0.7940 N   0  0  0  0  0  0  0  0  0  0  0  0
  -15.1246    9.0585   -0.5965 N   0  0  0  0  0  0  0  0  0  0  0  0
  -14.9777    8.4656    0.5721 N   0  0  0  0  0  0  0  0  0  0  0  0
  -13.7008    8.3500    0.8809 N   0  0  0  0  0  0  0  0  0  0  0  0
  -22.0511    8.7675   -2.6030 O   0  0  0  0  0  0  0  0  0  0  0  0
  -24.7951    7.0326   -1.1717 O   0  0  0  0  0  0  0  0  0  0  0  0
  -25.2745    9.4340   -3.3372 O   0  0  0  0  0  0  0  0  0  0  0  0
  -20.7365    8.5765    0.7218 O   0  0  0  0  0  0  0  0  0  0  0  0
  -16.0084    7.3087   -2.3442 O   0  0  0  0  0  0  0  0  0  0  0  0
  -19.5580    9.1608   -1.8766 S   0  0  0  0  0  0  0  0  0  0  0  0
  -12.9895    8.8885   -0.1260 C   0  0  0  0  0  0  0  0  0  0  0  0
   -8.8160    9.2372   -0.4732 C   0  0  0  0  0  0  0  0  0  0  0  0
  -10.9403    8.6318   -1.4136 C   0  0  0  0  0  0  0  0  0  0  0  0
   -8.7349   10.0866    1.7057 F   0  0  0  0  0  0  0  0  0  0  0  0
 17  1  1  0
 18  1  1  0
  1 31  1  1
  2 19  1  0
  2 30  1  0
  2 35  1  6
 21  3  1  0
  3 35  1  6
  4 21  1  0
  4 27  1  6
  5  6  2  0
 36  5  1  0
  5 38  1  0
  6  7  1  0
  7 37  2  0
  7 39  1  0
  8 37  1  0
 38  8  2  0
 10  9  2  0
  9 14  1  0
 10 11  1  0
 15 10  1  0
 11 12  2  0
 12 13  1  0
 14 13  2  0
 14 23  1  0
 16 15  2  0
 15 24  1  0
 26 16  1  0
 17 20  1  0
 17 30  1  1
 19 18  1  0
 18 26  1  6
 19 33  1  1
 20 32  1  6
 21 34  1  6
 22 27  1  0
 22 36  2  0
 24 25  2  0
 25 26  1  0
 27 28  1  0
 28 29  2  0
 29 36  1  0
M  END
$$$$
