
     RDKit          3D

 39 43  0  0  0  0  0  0  0  0999 V2000
  -25.0370    8.2736   -0.7678 C   0  0  1  0  0  0  0  0  0  0  0  0
  -22.7707    9.4019   -1.0633 C   0  0  1  0  0  0  0  0  0  0  0  0
  -19.9051    9.0957   -1.8510 C   0  0  0  0  0  0  0  0  0  0  0  0
  -17.3955    9.3380   -2.2019 C   0  0  0  0  0  0  0  0  0  0  0  0
  -13.2468    8.2302    0.3409 C   0  0  0  0  0  0  0  0  0  0  0  0
  -13.1407    6.8818    0.1160 C   0  0  0  0  0  0  0  0  0  0  0  0
  -12.0990    6.1842    0.6536 C   0  0  0  0  0  0  0  0  0  0  0  0
  -11.2697    8.1591    1.6357 C   0  0  0  0  0  0  0  0  0  0  0  0
  -28.3892   10.5917    4.8244 C   0  0  0  0  0  0  0  0  0  0  0  0
  -27.8168    9.5392    4.1420 C   0  0  0  0  0  0  0  0  0  0  0  0
  -28.1257    8.2808    4.6076 C   0  0  0  0  0  0  0  0  0  0  0  0
  -28.9545    8.0846    5.6878 C   0  0  0  0  0  0  0  0  0  0  0  0
  -29.5179    9.1760    6.3571 C   0  0  0  0  0  0  0  0  0  0  0  0
  -29.2220   10.4437    5.9070 C   0  0  0  0  0  0  0  0  0  0  0  0
  -26.9345    9.7535    3.0039 C   0  0  0  0  0  0  0  0  0  0  0  0
  -26.1205    8.7796    2.4727 C   0  0  0  0  0  0  0  0  0  0  0  0
  -24.9751    9.3867   -1.8219 C   0  0  1  0  0  0  0  0  0  0  0  0
  -24.4813    8.7099    0.5352 C   0  0  1  0  0  0  0  0  0  0  0  0
  -23.2689    9.5875    0.3744 C   0  0  1  0  0  0  0  0  0  0  0  0
  -25.9781   10.4727   -1.5009 C   0  0  0  0  0  0  0  0  0  0  0  0
  -18.5528    9.2093   -1.2756 C   0  0  2  0  0  0  0  0  0  0  0  0
  -15.3442    8.4128   -1.0275 C   0  0  0  0  0  0  0  0  0  0  0  0
  -29.7569   11.5167    6.5404 F   0  0  0  0  0  0  0  0  0  0  0  0
  -26.7341   10.8482    2.2695 N   0  0  0  0  0  0  0  0  0  0  0  0
  -25.8399   10.5733    1.3252 N   0  0  0  0  0  0  0  0  0  0  0  0
  -25.4475    9.2841    1.4399 N   0  0  0  0  0  0  0  0  0  0  0  0
  -16.1760    9.3811   -1.3712 N   0  0  0  0  0  0  0  0  0  0  0  0
  -15.7332   10.4962   -0.8244 N   0  0  0  0  0  0  0  0  0  0  0  0
  -14.6324   10.2734   -0.1331 N   0  0  0  0  0  0  0  0  0  0  0  0
  -23.7055    9.8608   -1.9886 O   0  0  0  0  0  0  0  0  0  0  0  0
  -26.3548    7.8505   -0.7525 O   0  0  0  0  0  0  0  0  0  0  0  0
  -27.1622   10.3057   -2.2095 O   0  0  0  0  0  0  0  0  0  0  0  0
  -22.2434    9.1590    1.2034 O   0  0  0  0  0  0  0  0  0  0  0  0
  -18.2806    8.1596   -0.3593 O   0  0  0  0  0  0  0  0  0  0  0  0
  -21.1898   10.1886   -1.3090 S   0  0  0  0  0  0  0  0  0  0  0  0
  -14.3482    8.9624   -0.2343 C   0  0  0  0  0  0  0  0  0  0  0  0
  -11.1474    6.7984    1.4188 C   0  0  0  0  0  0  0  0  0  0  0  0
  -12.3144    8.8721    1.0993 C   0  0  0  0  0  0  0  0  0  0  0  0
  -11.9924    4.8517    0.4329 F   0  0  0  0  0  0  0  0  0  0  0  0
 17  1  1  0
 18  1  1  0
  1 31  1  1
  2 19  1  0
  2 30  1  0
  2 35  1  1
 21  3  1  0
  3 35  1  6
  4 21  1  0
  4 27  1  6
  5  6  2  0
 36  5  1  0
  5 38  1  0
  6  7  1  0
  7 37  2  0
  7 39  1  0
  8 37  1  0
 38  8  2  0
 10  9  2  0
  9 14  1  0
 10 11  1  0
 15 10  1  0
 11 12  2  0
 12 13  1  0
 14 13  2  0
 14 23  1  0
 16 15  2  0
 15 24  1  0
 26 16  1  0
 17 20  1  0
 17 30  1  1
 19 18  1  0
 18 26  1  6
 19 33  1  1
 20 32  1  6
 21 34  1  6
 22 27  1  0
 22 36  2  0
 24 25  2  0
 25 26  1  0
 27 28  1  0
 28 29  2  0
 29 36  1  0
M  END
$$$$
