
     RDKit          3D

 39 43  0  0  0  0  0  0  0  0999 V2000
  -24.2944    9.3486   -1.1590 C   0  0  1  0  0  0  0  0  0  0  0  0
  -21.7734    9.1146   -0.8663 C   0  0  1  0  0  0  0  0  0  0  0  0
  -19.2489    7.8510   -1.8441 C   0  0  0  0  0  0  0  0  0  0  0  0
  -17.3755    9.5287   -2.2387 C   0  0  0  0  0  0  0  0  0  0  0  0
  -12.9085    9.0029   -0.0768 C   0  0  0  0  0  0  0  0  0  0  0  0
  -11.7797    9.7799   -0.1247 C   0  0  0  0  0  0  0  0  0  0  0  0
  -10.8037    9.6175    0.8144 C   0  0  0  0  0  0  0  0  0  0  0  0
  -12.0656    7.9160    1.8464 C   0  0  0  0  0  0  0  0  0  0  0  0
  -27.5577   10.3702    4.8500 C   0  0  0  0  0  0  0  0  0  0  0  0
  -27.2116    9.4415    3.8912 C   0  0  0  0  0  0  0  0  0  0  0  0
  -27.9150    8.2581    3.9180 C   0  0  0  0  0  0  0  0  0  0  0  0
  -28.9025    8.0160    4.8445 C   0  0  0  0  0  0  0  0  0  0  0  0
  -29.2275    8.9810    5.8035 C   0  0  0  0  0  0  0  0  0  0  0  0
  -28.5360   10.1722    5.7939 C   0  0  0  0  0  0  0  0  0  0  0  0
  -26.1604    9.7008    2.9179 C   0  0  0  0  0  0  0  0  0  0  0  0
  -25.7090    8.7682    2.0125 C   0  0  0  0  0  0  0  0  0  0  0  0
  -23.4630   10.5949   -1.4898 C   0  0  1  0  0  0  0  0  0  0  0  0
  -23.9587    8.7936    0.1736 C   0  0  1  0  0  0  0  0  0  0  0  0
  -22.4846    8.8686    0.4691 C   0  0  1  0  0  0  0  0  0  0  0  0
  -23.9064   11.7651   -0.6397 C   0  0  0  0  0  0  0  0  0  0  0  0
  -17.9106    8.1481   -2.3858 C   0  0  2  0  0  0  0  0  0  0  0  0
  -15.2991    9.2362   -0.8082 C   0  0  0  0  0  0  0  0  0  0  0  0
  -28.8342   11.1223    6.7143 F   0  0  0  0  0  0  0  0  0  0  0  0
  -25.4570   10.8107    2.6920 N   0  0  0  0  0  0  0  0  0  0  0  0
  -24.6080   10.5846    1.6943 N   0  0  0  0  0  0  0  0  0  0  0  0
  -24.7543    9.3123    1.2597 N   0  0  0  0  0  0  0  0  0  0  0  0
  -15.9316    9.4077   -1.9563 N   0  0  0  0  0  0  0  0  0  0  0  0
  -15.0193    9.4614   -2.9068 N   0  0  0  0  0  0  0  0  0  0  0  0
  -13.8085    9.3287   -2.4012 N   0  0  0  0  0  0  0  0  0  0  0  0
  -22.1222   10.3496   -1.4083 O   0  0  0  0  0  0  0  0  0  0  0  0
  -25.6140    9.7238   -1.3435 O   0  0  0  0  0  0  0  0  0  0  0  0
  -24.1113   12.9080   -1.4036 O   0  0  0  0  0  0  0  0  0  0  0  0
  -22.0196    7.6512    0.9428 O   0  0  0  0  0  0  0  0  0  0  0  0
  -17.7969    7.7646   -3.7480 O   0  0  0  0  0  0  0  0  0  0  0  0
  -20.0047    8.9688   -0.6961 S   0  0  0  0  0  0  0  0  0  0  0  0
  -13.9383    9.1831   -1.0701 C   0  0  0  0  0  0  0  0  0  0  0  0
  -10.9206    8.6914    1.8129 C   0  0  0  0  0  0  0  0  0  0  0  0
  -13.0552    8.0707    0.9061 C   0  0  0  0  0  0  0  0  0  0  0  0
   -9.6875   10.3840    0.7687 F   0  0  0  0  0  0  0  0  0  0  0  0
 17  1  1  0
 18  1  1  0
  1 31  1  1
  2 19  1  0
  2 30  1  0
  2 35  1  1
 21  3  1  0
  3 35  1  6
  4 21  1  0
  4 27  1  6
  5  6  2  0
 36  5  1  0
  5 38  1  0
  6  7  1  0
  7 37  2  0
  7 39  1  0
  8 37  1  0
 38  8  2  0
 10  9  2  0
  9 14  1  0
 10 11  1  0
 15 10  1  0
 11 12  2  0
 12 13  1  0
 14 13  2  0
 14 23  1  0
 16 15  2  0
 15 24  1  0
 26 16  1  0
 17 20  1  0
 17 30  1  1
 19 18  1  0
 18 26  1  1
 19 33  1  6
 20 32  1  6
 21 34  1  6
 22 27  1  0
 22 36  2  0
 24 25  2  0
 25 26  1  0
 27 28  1  0
 28 29  2  0
 29 36  1  0
M  END
$$$$
