
     RDKit          3D

 39 43  0  0  0  0  0  0  0  0999 V2000
  -24.0811   11.4111   -1.3681 C   0  0  1  0  0  0  0  0  0  0  0  0
  -22.1389    9.7686   -1.2080 C   0  0  1  0  0  0  0  0  0  0  0  0
  -19.6255    8.7386   -2.4523 C   0  0  0  0  0  0  0  0  0  0  0  0
  -17.5932    7.4519   -1.6190 C   0  0  0  0  0  0  0  0  0  0  0  0
  -12.9404    8.2050    0.0207 C   0  0  0  0  0  0  0  0  0  0  0  0
  -13.1276    8.2144    1.3790 C   0  0  0  0  0  0  0  0  0  0  0  0
  -12.0626    8.4070    2.2094 C   0  0  0  0  0  0  0  0  0  0  0  0
  -10.6290    8.5806    0.3473 C   0  0  0  0  0  0  0  0  0  0  0  0
  -30.0319    9.7207   -0.8404 C   0  0  0  0  0  0  0  0  0  0  0  0
  -29.2299    9.1885    0.1470 C   0  0  0  0  0  0  0  0  0  0  0  0
  -29.8746    8.4476    1.1119 C   0  0  0  0  0  0  0  0  0  0  0  0
  -31.2358    8.2500    1.0930 C   0  0  0  0  0  0  0  0  0  0  0  0
  -32.0192    8.8052    0.0760 C   0  0  0  0  0  0  0  0  0  0  0  0
  -31.3937    9.5497   -0.8996 C   0  0  0  0  0  0  0  0  0  0  0  0
  -27.7906    9.4073    0.1654 C   0  0  0  0  0  0  0  0  0  0  0  0
  -27.0297    9.5888   -0.9665 C   0  0  0  0  0  0  0  0  0  0  0  0
  -23.0837   11.6619   -0.2296 C   0  0  1  0  0  0  0  0  0  0  0  0
  -24.5616   10.0091   -1.3879 C   0  0  1  0  0  0  0  0  0  0  0  0
  -23.4713    9.0266   -1.0540 C   0  0  1  0  0  0  0  0  0  0  0  0
  -23.7941   11.6478    1.1060 C   0  0  0  0  0  0  0  0  0  0  0  0
  -18.1730    8.6904   -2.2055 C   0  0  2  0  0  0  0  0  0  0  0  0
  -15.3821    7.8346   -0.4325 C   0  0  0  0  0  0  0  0  0  0  0  0
  -32.1333   10.0975   -1.8954 F   0  0  0  0  0  0  0  0  0  0  0  0
  -26.9490    9.4843    1.1967 N   0  0  0  0  0  0  0  0  0  0  0  0
  -25.7224    9.7039    0.7337 N   0  0  0  0  0  0  0  0  0  0  0  0
  -25.7576    9.7716   -0.6166 N   0  0  0  0  0  0  0  0  0  0  0  0
  -16.1370    7.6653   -1.5044 N   0  0  0  0  0  0  0  0  0  0  0  0
  -15.3458    7.7160   -2.5580 N   0  0  0  0  0  0  0  0  0  0  0  0
  -14.0939    7.9147   -2.1939 N   0  0  0  0  0  0  0  0  0  0  0  0
  -22.0232   10.8035   -0.2828 O   0  0  0  0  0  0  0  0  0  0  0  0
  -25.0564   12.3832   -1.2272 O   0  0  0  0  0  0  0  0  0  0  0  0
  -23.8144   12.9081    1.6917 O   0  0  0  0  0  0  0  0  0  0  0  0
  -23.4512    7.9891   -1.9737 O   0  0  0  0  0  0  0  0  0  0  0  0
  -17.7323    9.8003   -1.4379 O   0  0  0  0  0  0  0  0  0  0  0  0
  -20.7557    8.6498   -1.0909 S   0  0  0  0  0  0  0  0  0  0  0  0
  -14.0700    7.9964   -0.8512 C   0  0  0  0  0  0  0  0  0  0  0  0
  -10.8000    8.5930    1.7199 C   0  0  0  0  0  0  0  0  0  0  0  0
  -11.6940    8.3876   -0.4987 C   0  0  0  0  0  0  0  0  0  0  0  0
  -12.2454    8.4170    3.5517 F   0  0  0  0  0  0  0  0  0  0  0  0
 17  1  1  0
 18  1  1  0
  1 31  1  1
  2 19  1  0
  2 30  1  0
  2 35  1  1
 21  3  1  0
  3 35  1  6
  4 21  1  0
  4 27  1  6
  5  6  2  0
 36  5  1  0
  5 38  1  0
  6  7  1  0
  7 37  2  0
  7 39  1  0
  8 37  1  0
 38  8  2  0
 10  9  2  0
  9 14  1  0
 10 11  1  0
 15 10  1  0
 11 12  2  0
 12 13  1  0
 14 13  2  0
 14 23  1  0
 16 15  2  0
 15 24  1  0
 26 16  1  0
 17 20  1  0
 17 30  1  1
 19 18  1  0
 18 26  1  1
 19 33  1  6
 20 32  1  6
 21 34  1  1
 22 27  1  0
 22 36  2  0
 24 25  2  0
 25 26  1  0
 27 28  1  0
 28 29  2  0
 29 36  1  0
M  END
$$$$
