
     RDKit          3D

 39 43  0  0  0  0  0  0  0  0999 V2000
  -24.2074    8.0831   -0.8016 C   0  0  1  0  0  0  0  0  0  0  0  0
  -21.7154    8.5925   -0.9639 C   0  0  1  0  0  0  0  0  0  0  0  0
  -18.9550    7.5116   -1.3352 C   0  0  0  0  0  0  0  0  0  0  0  0
  -16.7999    8.6117   -2.1258 C   0  0  0  0  0  0  0  0  0  0  0  0
  -12.2023    8.7196   -0.1880 C   0  0  0  0  0  0  0  0  0  0  0  0
  -12.3787    9.5251    0.9075 C   0  0  0  0  0  0  0  0  0  0  0  0
  -11.3398    9.7420    1.7646 C   0  0  0  0  0  0  0  0  0  0  0  0
   -9.9536    8.3628    0.4497 C   0  0  0  0  0  0  0  0  0  0  0  0
  -27.8792    9.3187    3.8823 C   0  0  0  0  0  0  0  0  0  0  0  0
  -27.1065   10.4107    3.5479 C   0  0  0  0  0  0  0  0  0  0  0  0
  -27.4469   11.5979    4.1564 C   0  0  0  0  0  0  0  0  0  0  0  0
  -28.4940   11.6901    5.0437 C   0  0  0  0  0  0  0  0  0  0  0  0
  -29.2574   10.5616    5.3598 C   0  0  0  0  0  0  0  0  0  0  0  0
  -28.9332    9.3636    4.7623 C   0  0  0  0  0  0  0  0  0  0  0  0
  -26.0041   10.3082    2.6025 C   0  0  0  0  0  0  0  0  0  0  0  0
  -25.5034    9.1139    2.1375 C   0  0  0  0  0  0  0  0  0  0  0  0
  -23.7924    9.0487   -1.9193 C   0  0  1  0  0  0  0  0  0  0  0  0
  -23.6556    8.4849    0.5140 C   0  0  1  0  0  0  0  0  0  0  0  0
  -22.2535    9.0218    0.4057 C   0  0  1  0  0  0  0  0  0  0  0  0
  -24.5114   10.3709   -1.7673 C   0  0  0  0  0  0  0  0  0  0  0  0
  -17.4888    7.6322   -1.2426 C   0  0  2  0  0  0  0  0  0  0  0  0
  -14.6249    8.8393   -0.8371 C   0  0  0  0  0  0  0  0  0  0  0  0
  -29.6595    8.2563    5.0539 F   0  0  0  0  0  0  0  0  0  0  0  0
  -25.2901   11.2670    2.0119 N   0  0  0  0  0  0  0  0  0  0  0  0
  -24.3880   10.7013    1.2161 N   0  0  0  0  0  0  0  0  0  0  0  0
  -24.5095    9.3561    1.2844 N   0  0  0  0  0  0  0  0  0  0  0  0
  -15.3507    8.4747   -1.8801 N   0  0  0  0  0  0  0  0  0  0  0  0
  -14.5356    7.9197   -2.7553 N   0  0  0  0  0  0  0  0  0  0  0  0
  -13.2964    7.9161   -2.3038 N   0  0  0  0  0  0  0  0  0  0  0  0
  -22.4359    9.1814   -2.0006 O   0  0  0  0  0  0  0  0  0  0  0  0
  -25.5868    7.9978   -0.8788 O   0  0  0  0  0  0  0  0  0  0  0  0
  -25.5812   10.4796   -2.6480 O   0  0  0  0  0  0  0  0  0  0  0  0
  -21.4308    8.4315    1.3530 O   0  0  0  0  0  0  0  0  0  0  0  0
  -16.8473    6.3733   -1.3809 O   0  0  0  0  0  0  0  0  0  0  0  0
  -19.9742    8.9440   -1.1163 S   0  0  0  0  0  0  0  0  0  0  0  0
  -13.3061    8.4911   -1.0875 C   0  0  0  0  0  0  0  0  0  0  0  0
  -10.1143    9.1725    1.5597 C   0  0  0  0  0  0  0  0  0  0  0  0
  -10.9926    8.1372   -0.4203 C   0  0  0  0  0  0  0  0  0  0  0  0
  -11.5119   10.5378    2.8474 F   0  0  0  0  0  0  0  0  0  0  0  0
 17  1  1  0
 18  1  1  0
  1 31  1  1
  2 19  1  0
  2 30  1  0
  2 35  1  1
 21  3  1  0
  3 35  1  6
  4 21  1  0
  4 27  1  6
  5  6  2  0
 36  5  1  0
  5 38  1  0
  6  7  1  0
  7 37  2  0
  7 39  1  0
  8 37  1  0
 38  8  2  0
 10  9  2  0
  9 14  1  0
 10 11  1  0
 15 10  1  0
 11 12  2  0
 12 13  1  0
 14 13  2  0
 14 23  1  0
 16 15  2  0
 15 24  1  0
 26 16  1  0
 17 20  1  0
 17 30  1  1
 19 18  1  0
 18 26  1  6
 19 33  1  1
 20 32  1  6
 21 34  1  6
 22 27  1  0
 22 36  2  0
 24 25  2  0
 25 26  1  0
 27 28  1  0
 28 29  2  0
 29 36  1  0
M  END
$$$$
