
     RDKit          3D

 39 43  0  0  0  0  0  0  0  0999 V2000
  -18.7088    6.5152   -0.6431 C   0  0  1  0  0  0  0  0  0  0  0  0
  -20.3413    8.7916   -0.4229 C   0  0  1  0  0  0  0  0  0  0  0  0
  -22.8177   10.3049   -0.7706 C   0  0  0  0  0  0  0  0  0  0  0  0
  -25.2941   10.1113   -0.5778 C   0  0  0  0  0  0  0  0  0  0  0  0
  -28.2823    9.0030    3.2293 C   0  0  0  0  0  0  0  0  0  0  0  0
  -27.5630    8.0976    3.9680 C   0  0  0  0  0  0  0  0  0  0  0  0
  -28.1177    7.4500    5.0770 C   0  0  0  0  0  0  0  0  0  0  0  0
  -30.1592    8.6676    4.6671 C   0  0  0  0  0  0  0  0  0  0  0  0
  -13.6079   10.6255    0.0417 C   0  0  0  0  0  0  0  0  0  0  0  0
  -13.5872    9.6781   -0.9604 C   0  0  0  0  0  0  0  0  0  0  0  0
  -12.5237    9.5912   -1.8375 C   0  0  0  0  0  0  0  0  0  0  0  0
  -11.4704   10.4620   -1.7094 C   0  0  0  0  0  0  0  0  0  0  0  0
  -11.4826   11.4123   -0.7105 C   0  0  0  0  0  0  0  0  0  0  0  0
  -12.5557   11.5047    0.1793 C   0  0  0  0  0  0  0  0  0  0  0  0
  -14.7336    8.7714   -1.0560 C   0  0  0  0  0  0  0  0  0  0  0  0
  -16.0696    9.0968   -0.9906 C   0  0  0  0  0  0  0  0  0  0  0  0
  -20.2203    6.5645   -0.6953 C   0  0  1  0  0  0  0  0  0  0  0  0
  -18.2154    7.8830   -1.1085 C   0  0  1  0  0  0  0  0  0  0  0  0
  -18.8589    8.8844   -0.1415 C   0  0  1  0  0  0  0  0  0  0  0  0
  -20.8219    5.2008   -0.3882 C   0  0  0  0  0  0  0  0  0  0  0  0
  -24.0229   10.6113    0.0952 C   0  0  2  0  0  0  0  0  0  0  0  0
  -26.5712    9.2893    1.3584 C   0  0  0  0  0  0  0  0  0  0  0  0
  -12.5565   12.4550    1.1696 F   0  0  0  0  0  0  0  0  0  0  0  0
  -14.7032    7.4241   -1.2290 N   0  0  0  0  0  0  0  0  0  0  0  0
  -15.9513    6.9805   -1.2637 N   0  0  0  0  0  0  0  0  0  0  0  0
  -16.7991    7.9812   -1.1205 N   0  0  0  0  0  0  0  0  0  0  0  0
  -26.3755   10.1999    0.3647 N   0  0  0  0  0  0  0  0  0  0  0  0
  -27.3338   11.0956    0.4752 N   0  0  0  0  0  0  0  0  0  0  0  0
  -28.1329   10.7926    1.4999 N   0  0  0  0  0  0  0  0  0  0  0  0
  -20.7539    7.5502    0.1108 O   0  0  0  0  0  0  0  0  0  0  0  0
  -18.2520    6.2365    0.6412 O   0  0  0  0  0  0  0  0  0  0  0  0
  -22.1916    5.1991   -0.5661 O   0  0  0  0  0  0  0  0  0  0  0  0
  -18.3221   10.1339   -0.2597 O   0  0  0  0  0  0  0  0  0  0  0  0
  -24.1015   11.9363    0.4495 O   0  0  0  0  0  0  0  0  0  0  0  0
  -21.3098   10.1534    0.1873 S   0  0  0  0  0  0  0  0  0  0  0  0
  -27.6778    9.6692    2.0671 C   0  0  0  0  0  0  0  0  0  0  0  0
  -29.4166    7.7556    5.4012 C   0  0  0  0  0  0  0  0  0  0  0  0
  -29.5852    9.2937    3.5745 C   0  0  0  0  0  0  0  0  0  0  0  0
  -27.4236    6.5568    5.8141 F   0  0  0  0  0  0  0  0  0  0  0  0
 17  1  1  0
 18  1  1  0
  1 31  1  1
  2 19  1  0
  2 30  1  0
  2 35  1  1
 21  3  1  0
  3 35  1  0
  4 21  1  0
 27  4  1  0
  5  6  2  0
 36  5  1  0
  5 38  1  0
  6  7  1  0
  7 37  2  0
  7 39  1  0
  8 37  1  0
 38  8  2  0
 10  9  2  0
  9 14  1  0
 10 11  1  0
 15 10  1  0
 11 12  2  0
 12 13  1  0
 14 13  2  0
 14 23  1  0
 16 15  2  0
 15 24  1  0
 26 16  1  0
 17 20  1  1
 30 17  1  0
 19 18  1  0
 18 26  1  1
 19 33  1  6
 20 32  1  0
 21 34  1  6
 22 27  1  0
 22 36  2  0
 24 25  2  0
 25 26  1  0
 27 28  1  0
 28 29  2  0
 29 36  1  0
M  END
$$$$
