
     RDKit          3D

 39 43  0  0  0  0  0  0  0  0999 V2000
  -23.8598    8.9836   -1.7421 C   0  0  1  0  0  0  0  0  0  0  0  0
  -21.4917    8.7968   -0.8184 C   0  0  1  0  0  0  0  0  0  0  0  0
  -18.9212    7.2742   -0.8017 C   0  0  0  0  0  0  0  0  0  0  0  0
  -16.8679    8.4647   -1.7216 C   0  0  0  0  0  0  0  0  0  0  0  0
  -12.3484    8.7906    0.3695 C   0  0  0  0  0  0  0  0  0  0  0  0
  -12.6683    9.1240    1.6604 C   0  0  0  0  0  0  0  0  0  0  0  0
  -11.6772    9.3044    2.5802 C   0  0  0  0  0  0  0  0  0  0  0  0
  -10.0542    8.8241    0.9406 C   0  0  0  0  0  0  0  0  0  0  0  0
  -28.3286   10.5694    3.3372 C   0  0  0  0  0  0  0  0  0  0  0  0
  -27.9694    9.7606    2.2798 C   0  0  0  0  0  0  0  0  0  0  0  0
  -28.9139    8.8440    1.8753 C   0  0  0  0  0  0  0  0  0  0  0  0
  -30.1410    8.7404    2.4883 C   0  0  0  0  0  0  0  0  0  0  0  0
  -30.4719    9.5773    3.5590 C   0  0  0  0  0  0  0  0  0  0  0  0
  -29.5413   10.5018    3.9792 C   0  0  0  0  0  0  0  0  0  0  0  0
  -26.6663    9.8701    1.6398 C   0  0  0  0  0  0  0  0  0  0  0  0
  -26.0656    8.8444    0.9469 C   0  0  0  0  0  0  0  0  0  0  0  0
  -22.9377   10.1788   -2.0159 C   0  0  1  0  0  0  0  0  0  0  0  0
  -23.8716    8.6071   -0.3086 C   0  0  1  0  0  0  0  0  0  0  0  0
  -22.5109    8.7240    0.3242 C   0  0  1  0  0  0  0  0  0  0  0  0
  -23.5393   11.4481   -1.4541 C   0  0  0  0  0  0  0  0  0  0  0  0
  -17.4552    7.3447   -0.9376 C   0  0  2  0  0  0  0  0  0  0  0  0
  -14.7576    8.7207   -0.3343 C   0  0  0  0  0  0  0  0  0  0  0  0
  -29.8404   11.3236    5.0154 F   0  0  0  0  0  0  0  0  0  0  0  0
  -25.8279   10.9048    1.5754 N   0  0  0  0  0  0  0  0  0  0  0  0
  -24.7559   10.5452    0.8762 N   0  0  0  0  0  0  0  0  0  0  0  0
  -24.8906    9.2600    0.4770 N   0  0  0  0  0  0  0  0  0  0  0  0
  -15.4164    8.4697   -1.4527 N   0  0  0  0  0  0  0  0  0  0  0  0
  -14.5246    8.1984   -2.3852 N   0  0  0  0  0  0  0  0  0  0  0  0
  -13.3013    8.2676   -1.8971 N   0  0  0  0  0  0  0  0  0  0  0  0
  -21.6639    9.9500   -1.5807 O   0  0  0  0  0  0  0  0  0  0  0  0
  -25.0846    9.3278   -2.2875 O   0  0  0  0  0  0  0  0  0  0  0  0
  -23.5952   12.4574   -2.4081 O   0  0  0  0  0  0  0  0  0  0  0  0
  -22.2091    7.5798    1.0468 O   0  0  0  0  0  0  0  0  0  0  0  0
  -16.9119    6.1250   -1.4199 O   0  0  0  0  0  0  0  0  0  0  0  0
  -19.8213    8.6793   -0.2066 S   0  0  0  0  0  0  0  0  0  0  0  0
  -13.4015    8.5969   -0.5966 C   0  0  0  0  0  0  0  0  0  0  0  0
  -10.3593    9.1606    2.2472 C   0  0  0  0  0  0  0  0  0  0  0  0
  -11.0440    8.6398    0.0058 C   0  0  0  0  0  0  0  0  0  0  0  0
  -11.9910    9.6342    3.8562 F   0  0  0  0  0  0  0  0  0  0  0  0
 17  1  1  0
 18  1  1  0
  1 31  1  1
  2 19  1  0
  2 30  1  0
  2 35  1  1
 21  3  1  0
  3 35  1  6
  4 21  1  0
  4 27  1  6
  5  6  2  0
 36  5  1  0
  5 38  1  0
  6  7  1  0
  7 37  2  0
  7 39  1  0
  8 37  1  0
 38  8  2  0
 10  9  2  0
  9 14  1  0
 10 11  1  0
 15 10  1  0
 11 12  2  0
 12 13  1  0
 14 13  2  0
 14 23  1  0
 16 15  2  0
 15 24  1  0
 26 16  1  0
 17 20  1  0
 17 30  1  1
 19 18  1  0
 18 26  1  1
 19 33  1  1
 20 32  1  6
 21 34  1  6
 22 27  1  0
 22 36  2  0
 24 25  2  0
 25 26  1  0
 27 28  1  0
 28 29  2  0
 29 36  1  0
M  END
$$$$
