
     RDKit          3D

 39 43  0  0  0  0  0  0  0  0999 V2000
  -25.0389    9.7442   -1.5752 C   0  0  1  0  0  0  0  0  0  0  0  0
  -22.3073    9.1235   -1.3537 C   0  0  1  0  0  0  0  0  0  0  0  0
  -19.8513    7.5561   -1.1196 C   0  0  0  0  0  0  0  0  0  0  0  0
  -17.7313    8.8492   -1.3211 C   0  0  0  0  0  0  0  0  0  0  0  0
  -13.3079    8.3623    0.8806 C   0  0  0  0  0  0  0  0  0  0  0  0
  -13.6111    8.3903    2.2185 C   0  0  0  0  0  0  0  0  0  0  0  0
  -12.6143    8.3282    3.1980 C   0  0  0  0  0  0  0  0  0  0  0  0
  -10.9870    8.2082    1.4214 C   0  0  0  0  0  0  0  0  0  0  0  0
  -26.9663    7.4820    4.2133 C   0  0  0  0  0  0  0  0  0  0  0  0
  -27.2747    8.7590    3.7931 C   0  0  0  0  0  0  0  0  0  0  0  0
  -28.2703    9.4915    4.4096 C   0  0  0  0  0  0  0  0  0  0  0  0
  -28.9639    8.9393    5.4574 C   0  0  0  0  0  0  0  0  0  0  0  0
  -28.6625    7.6633    5.8842 C   0  0  0  0  0  0  0  0  0  0  0  0
  -27.6565    6.9180    5.2643 C   0  0  0  0  0  0  0  0  0  0  0  0
  -26.5063    9.3046    2.6717 C   0  0  0  0  0  0  0  0  0  0  0  0
  -25.8298    8.6054    1.6979 C   0  0  0  0  0  0  0  0  0  0  0  0
  -24.1051    9.3188   -2.6874 C   0  0  1  0  0  0  0  0  0  0  0  0
  -24.4688    9.1600   -0.2850 C   0  0  1  0  0  0  0  0  0  0  0  0
  -23.0496    9.7327   -0.1861 C   0  0  1  0  0  0  0  0  0  0  0  0
  -24.6546    9.7255   -4.0471 C   0  0  0  0  0  0  0  0  0  0  0  0
  -18.3977    7.4982   -1.5433 C   0  0  2  0  0  0  0  0  0  0  0  0
  -15.7066    8.6649    0.0651 C   0  0  0  0  0  0  0  0  0  0  0  0
  -27.3656    5.6488    5.6980 F   0  0  0  0  0  0  0  0  0  0  0  0
  -26.3095   10.6150    2.3711 N   0  0  0  0  0  0  0  0  0  0  0  0
  -25.5592   10.6840    1.2812 N   0  0  0  0  0  0  0  0  0  0  0  0
  -25.2556    9.4730    0.8545 N   0  0  0  0  0  0  0  0  0  0  0  0
  -16.3197    8.6402   -1.1507 N   0  0  0  0  0  0  0  0  0  0  0  0
  -15.3835    8.3990   -2.0442 N   0  0  0  0  0  0  0  0  0  0  0  0
  -14.1976    8.2688   -1.4466 N   0  0  0  0  0  0  0  0  0  0  0  0
  -22.8124    9.7680   -2.5050 O   0  0  0  0  0  0  0  0  0  0  0  0
  -25.1326   11.1297   -1.4904 O   0  0  0  0  0  0  0  0  0  0  0  0
  -24.4529    8.7380   -4.9915 O   0  0  0  0  0  0  0  0  0  0  0  0
  -22.4881    9.5118    1.0384 O   0  0  0  0  0  0  0  0  0  0  0  0
  -18.2348    7.0360   -2.8267 O   0  0  0  0  0  0  0  0  0  0  0  0
  -20.5337    9.2092   -1.2453 S   0  0  0  0  0  0  0  0  0  0  0  0
  -14.3730    8.4307   -0.1298 C   0  0  0  0  0  0  0  0  0  0  0  0
  -11.3130    8.2377    2.7687 C   0  0  0  0  0  0  0  0  0  0  0  0
  -11.9935    8.2711    0.4737 C   0  0  0  0  0  0  0  0  0  0  0  0
  -12.8957    8.3545    4.5182 F   0  0  0  0  0  0  0  0  0  0  0  0
 17  1  1  0
 18  1  1  0
  1 31  1  1
  2 19  1  0
  2 30  1  0
  2 35  1  1
 21  3  1  0
  3 35  1  0
  4 21  1  0
 27  4  1  0
  5  6  2  0
 36  5  1  0
  5 38  1  0
  6  7  1  0
  7 37  2  0
  7 39  1  0
  8 37  1  0
 38  8  2  0
 10  9  2  0
  9 14  1  0
 10 11  1  0
 15 10  1  0
 11 12  2  0
 12 13  1  0
 14 13  2  0
 14 23  1  0
 16 15  2  0
 15 24  1  0
 26 16  1  0
 17 20  1  6
 30 17  1  0
 19 18  1  0
 18 26  1  1
 19 33  1  1
 20 32  1  0
 21 34  1  6
 22 27  1  0
 22 36  2  0
 24 25  2  0
 25 26  1  0
 27 28  1  0
 28 29  2  0
 29 36  1  0
M  END
$$$$
