
     RDKit          3D

 39 43  0  0  0  0  0  0  0  0999 V2000
  -25.1255   10.6320   -0.8898 C   0  0  1  0  0  0  0  0  0  0  0  0
  -22.4809    9.6830   -0.8531 C   0  0  1  0  0  0  0  0  0  0  0  0
  -20.0986    8.3166   -1.8534 C   0  0  0  0  0  0  0  0  0  0  0  0
  -18.0143    7.1682   -1.1157 C   0  0  0  0  0  0  0  0  0  0  0  0
  -13.4752    8.2871    0.5566 C   0  0  0  0  0  0  0  0  0  0  0  0
  -13.5318    8.1577    1.9215 C   0  0  0  0  0  0  0  0  0  0  0  0
  -12.4886    8.5964    2.7438 C   0  0  0  0  0  0  0  0  0  0  0  0
  -11.3237    9.3044    0.7538 C   0  0  0  0  0  0  0  0  0  0  0  0
  -28.2317    8.6782    4.8974 C   0  0  0  0  0  0  0  0  0  0  0  0
  -27.7706    8.1127    3.7270 C   0  0  0  0  0  0  0  0  0  0  0  0
  -28.1457    6.8362    3.3557 C   0  0  0  0  0  0  0  0  0  0  0  0
  -28.9911    6.1191    4.1649 C   0  0  0  0  0  0  0  0  0  0  0  0
  -29.4570    6.6764    5.3369 C   0  0  0  0  0  0  0  0  0  0  0  0
  -29.0809    7.9670    5.7173 C   0  0  0  0  0  0  0  0  0  0  0  0
  -26.8713    8.9177    2.8969 C   0  0  0  0  0  0  0  0  0  0  0  0
  -26.2252    8.5347    1.7433 C   0  0  0  0  0  0  0  0  0  0  0  0
  -24.1782   10.5199   -2.0644 C   0  0  1  0  0  0  0  0  0  0  0  0
  -24.6832    9.5798    0.1241 C   0  0  1  0  0  0  0  0  0  0  0  0
  -23.2233    9.9266    0.4411 C   0  0  1  0  0  0  0  0  0  0  0  0
  -24.6133   11.4285   -3.2052 C   0  0  0  0  0  0  0  0  0  0  0  0
  -18.5858    8.3149   -1.9387 C   0  0  2  0  0  0  0  0  0  0  0  0
  -15.9233    7.8362   -0.0035 C   0  0  0  0  0  0  0  0  0  0  0  0
  -29.5512    8.5110    6.8862 F   0  0  0  0  0  0  0  0  0  0  0  0
  -26.4965   10.2072    3.1038 N   0  0  0  0  0  0  0  0  0  0  0  0
  -25.6757   10.5640    2.1268 N   0  0  0  0  0  0  0  0  0  0  0  0
  -25.4965    9.5619    1.2876 N   0  0  0  0  0  0  0  0  0  0  0  0
  -16.5845    7.3067   -1.0699 N   0  0  0  0  0  0  0  0  0  0  0  0
  -15.6715    6.9840   -1.9616 N   0  0  0  0  0  0  0  0  0  0  0  0
  -14.4543    7.2866   -1.5065 N   0  0  0  0  0  0  0  0  0  0  0  0
  -22.8604   10.7365   -1.7146 O   0  0  0  0  0  0  0  0  0  0  0  0
  -25.0918   11.9041   -0.3274 O   0  0  0  0  0  0  0  0  0  0  0  0
  -23.6036   11.5973   -4.1324 O   0  0  0  0  0  0  0  0  0  0  0  0
  -22.7515    9.2367    1.5203 O   0  0  0  0  0  0  0  0  0  0  0  0
  -18.0321    9.5276   -1.6067 O   0  0  0  0  0  0  0  0  0  0  0  0
  -20.7156    9.5347   -0.6915 S   0  0  0  0  0  0  0  0  0  0  0  0
  -14.5850    7.8200   -0.2860 C   0  0  0  0  0  0  0  0  0  0  0  0
  -11.3991    9.1650    2.1311 C   0  0  0  0  0  0  0  0  0  0  0  0
  -12.3705    8.8615   -0.0358 C   0  0  0  0  0  0  0  0  0  0  0  0
  -12.5287    8.4764    4.0880 F   0  0  0  0  0  0  0  0  0  0  0  0
 17  1  1  0
 18  1  1  0
  1 31  1  1
  2 19  1  0
  2 30  1  0
  2 35  1  1
 21  3  1  0
  3 35  1  0
  4 21  1  0
 27  4  1  0
  5  6  2  0
 36  5  1  0
  5 38  1  0
  6  7  1  0
  7 37  2  0
  7 39  1  0
  8 37  1  0
 38  8  2  0
 10  9  2  0
  9 14  1  0
 10 11  1  0
 15 10  1  0
 11 12  2  0
 12 13  1  0
 14 13  2  0
 14 23  1  0
 16 15  2  0
 15 24  1  0
 26 16  1  0
 17 20  1  6
 30 17  1  0
 19 18  1  0
 18 26  1  1
 19 33  1  1
 20 32  1  0
 21 34  1  1
 22 27  1  0
 22 36  2  0
 24 25  2  0
 25 26  1  0
 27 28  1  0
 28 29  2  0
 29 36  1  0
M  END
$$$$
