
     RDKit          3D

 39 43  0  0  0  0  0  0  0  0999 V2000
  -17.4802    9.4398   -2.6205 C   0  0  1  0  0  0  0  0  0  0  0  0
  -19.7161    8.7663   -1.0576 C   0  0  1  0  0  0  0  0  0  0  0  0
  -22.1175    9.1330    0.5679 C   0  0  0  0  0  0  0  0  0  0  0  0
  -24.4787    9.6485   -0.0375 C   0  0  0  0  0  0  0  0  0  0  0  0
  -28.9012    8.5938    1.9576 C   0  0  0  0  0  0  0  0  0  0  0  0
  -30.1277    8.1513    1.5303 C   0  0  0  0  0  0  0  0  0  0  0  0
  -31.2076    8.0206    2.4099 C   0  0  0  0  0  0  0  0  0  0  0  0
  -29.7618    8.8025    4.1754 C   0  0  0  0  0  0  0  0  0  0  0  0
  -11.6134    8.7081    0.3182 C   0  0  0  0  0  0  0  0  0  0  0  0
  -12.8407    8.7069    0.9474 C   0  0  0  0  0  0  0  0  0  0  0  0
  -12.9449    8.9229    2.3077 C   0  0  0  0  0  0  0  0  0  0  0  0
  -11.8082    9.1423    3.0451 C   0  0  0  0  0  0  0  0  0  0  0  0
  -10.5769    9.1453    2.4245 C   0  0  0  0  0  0  0  0  0  0  0  0
  -10.4658    8.9274    1.0490 C   0  0  0  0  0  0  0  0  0  0  0  0
  -14.0243    8.4688    0.1178 C   0  0  0  0  0  0  0  0  0  0  0  0
  -15.1900    9.2003    0.0879 C   0  0  0  0  0  0  0  0  0  0  0  0
  -18.9049    9.9123   -2.8117 C   0  0  1  0  0  0  0  0  0  0  0  0
  -17.3303    9.1079   -1.1379 C   0  0  1  0  0  0  0  0  0  0  0  0
  -18.4016    8.0460   -0.8611 C   0  0  1  0  0  0  0  0  0  0  0  0
  -19.1290   10.4100   -4.2324 C   0  0  0  0  0  0  0  0  0  0  0  0
  -23.5602    8.6931    0.7125 C   0  0  2  0  0  0  0  0  0  0  0  0
  -26.5455    9.2629    1.2410 C   0  0  0  0  0  0  0  0  0  0  0  0
   -9.2346    8.9326    0.4426 F   0  0  0  0  0  0  0  0  0  0  0  0
  -14.2047    7.4740   -0.7899 N   0  0  0  0  0  0  0  0  0  0  0  0
  -15.4091    7.6117   -1.3247 N   0  0  0  0  0  0  0  0  0  0  0  0
  -16.0263    8.6557   -0.8053 N   0  0  0  0  0  0  0  0  0  0  0  0
  -25.8299    9.1748    0.0856 N   0  0  0  0  0  0  0  0  0  0  0  0
  -26.6130    8.6023   -0.8042 N   0  0  0  0  0  0  0  0  0  0  0  0
  -27.7996    8.3217   -0.2624 N   0  0  0  0  0  0  0  0  0  0  0  0
  -19.8393    8.9620   -2.4513 O   0  0  0  0  0  0  0  0  0  0  0  0
  -17.2029    8.3256   -3.4061 O   0  0  0  0  0  0  0  0  0  0  0  0
  -20.1978   11.2821   -4.3016 O   0  0  0  0  0  0  0  0  0  0  0  0
  -18.2395    7.4550    0.3586 O   0  0  0  0  0  0  0  0  0  0  0  0
  -23.9363    8.5218    2.0227 O   0  0  0  0  0  0  0  0  0  0  0  0
  -21.1327    7.9521   -0.3541 S   0  0  0  0  0  0  0  0  0  0  0  0
  -27.7823    8.7245    1.0137 C   0  0  0  0  0  0  0  0  0  0  0  0
  -30.9937    8.3536    3.7249 C   0  0  0  0  0  0  0  0  0  0  0  0
  -28.7106    8.9223    3.2832 C   0  0  0  0  0  0  0  0  0  0  0  0
  -32.4205    7.5867    2.0057 F   0  0  0  0  0  0  0  0  0  0  0  0
 17  1  1  0
 18  1  1  0
  1 31  1  6
  2 19  1  0
  2 30  1  0
  2 35  1  6
 21  3  1  0
  3 35  1  0
  4 21  1  0
 27  4  1  0
  5  6  2  0
 36  5  1  0
  5 38  1  0
  6  7  1  0
  7 37  2  0
  7 39  1  0
  8 37  1  0
 38  8  2  0
 10  9  2  0
  9 14  1  0
 10 11  1  0
 15 10  1  0
 11 12  2  0
 12 13  1  0
 14 13  2  0
 14 23  1  0
 16 15  2  0
 15 24  1  0
 26 16  1  0
 17 20  1  6
 30 17  1  0
 19 18  1  0
 18 26  1  6
 19 33  1  1
 20 32  1  0
 21 34  1  1
 22 27  1  0
 22 36  2  0
 24 25  2  0
 25 26  1  0
 27 28  1  0
 28 29  2  0
 29 36  1  0
M  END
$$$$
