
     RDKit          3D

 19 20  0  0  0  0  0  0  0  0999 V2000
    1.9079  -15.8343    8.4336 C   0  0  0  0  0  0  0  0  0  0  0  0
    1.0014  -15.8191    9.4493 C   0  0  0  0  0  0  0  0  0  0  0  0
    0.2867  -16.9657    9.7267 C   0  0  0  0  0  0  0  0  0  0  0  0
   -0.6474  -17.0054   10.7483 O   0  0  0  0  0  0  0  0  0  0  0  0
    0.5065  -18.0961    8.9714 C   0  0  0  0  0  0  0  0  0  0  0  0
    1.4326  -18.0764    7.9497 C   0  0  0  0  0  0  0  0  0  0  0  0
    2.1815  -16.9371    7.6312 C   0  0  0  0  0  0  0  0  0  0  0  0
    3.1743  -16.9074    6.5289 C   0  0  1  0  0  0  0  0  0  0  0  0
    2.6750  -16.4125    5.2251 C   0  0  1  0  0  0  0  0  0  0  0  0
    2.1480  -14.7093    5.4942 Cl  0  0  0  0  0  0  0  0  0  0  0  0
    3.7571  -16.4326    3.8701 Cl  0  0  0  0  0  0  0  0  0  0  0  0
    1.2055  -17.3184    4.8056 Cl  0  0  0  0  0  0  0  0  0  0  0  0
    4.5080  -16.4379    6.9474 C   0  0  0  0  0  0  0  0  0  0  0  0
    5.3928  -17.2255    7.6974 C   0  0  0  0  0  0  0  0  0  0  0  0
    6.6357  -16.7825    8.0890 C   0  0  0  0  0  0  0  0  0  0  0  0
    7.0717  -15.5188    7.7527 C   0  0  0  0  0  0  0  0  0  0  0  0
    8.3316  -15.0774    8.1528 O   0  0  0  0  0  0  0  0  0  0  0  0
    6.2162  -14.7289    7.0155 C   0  0  0  0  0  0  0  0  0  0  0  0
    4.9519  -15.1784    6.6168 C   0  0  0  0  0  0  0  0  0  0  0  0
  1  2  2  0
  1  7  1  0
  2  3  1  0
  3  4  1  0
  3  5  2  0
  5  6  1  0
  6  7  2  0
  8  7  1  1
  8  9  1  0
  8 13  1  0
  9 10  1  1
  9 11  1  0
  9 12  1  0
 13 14  2  0
 13 19  1  0
 14 15  1  0
 15 16  2  0
 16 17  1  0
 16 18  1  0
 18 19  2  0
M  END
$$$$
