
     RDKit          3D

 19 20  0  0  0  0  0  0  0  0999 V2000
    3.3813  -17.5374    4.7026 C   0  0  0  0  0  0  0  0  0  0  0  0
    3.3363  -17.8461    3.3773 C   0  0  0  0  0  0  0  0  0  0  0  0
    2.9739  -16.8691    2.4737 C   0  0  0  0  0  0  0  0  0  0  0  0
    2.9120  -17.1288    1.1149 O   0  0  0  0  0  0  0  0  0  0  0  0
    2.6667  -15.6074    2.9325 C   0  0  0  0  0  0  0  0  0  0  0  0
    2.7225  -15.3292    4.2822 C   0  0  0  0  0  0  0  0  0  0  0  0
    3.0850  -16.2875    5.2363 C   0  0  0  0  0  0  0  0  0  0  0  0
    3.1403  -15.9965    6.6902 C   0  0  1  0  0  0  0  0  0  0  0  0
    2.0817  -16.6248    7.5140 C   0  0  1  0  0  0  0  0  0  0  0  0
    1.6902  -15.4495    8.8242 Cl  0  0  0  0  0  0  0  0  0  0  0  0
    0.5985  -17.0787    6.7384 Cl  0  0  0  0  0  0  0  0  0  0  0  0
    2.7704  -18.0481    8.3238 Cl  0  0  0  0  0  0  0  0  0  0  0  0
    4.5066  -16.0133    7.2446 C   0  0  0  0  0  0  0  0  0  0  0  0
    5.4252  -14.9740    7.0402 C   0  0  0  0  0  0  0  0  0  0  0  0
    6.7008  -14.9949    7.5567 C   0  0  0  0  0  0  0  0  0  0  0  0
    7.1377  -16.0615    8.3127 C   0  0  0  0  0  0  0  0  0  0  0  0
    8.4308  -16.0753    8.8323 O   0  0  0  0  0  0  0  0  0  0  0  0
    6.2494  -17.0935    8.5250 C   0  0  0  0  0  0  0  0  0  0  0  0
    4.9518  -17.0733    8.0001 C   0  0  0  0  0  0  0  0  0  0  0  0
  1  2  2  0
  1  7  1  0
  2  3  1  0
  3  4  1  0
  3  5  2  0
  5  6  1  0
  6  7  2  0
  8  7  1  6
  8  9  1  0
  8 13  1  0
  9 10  1  1
  9 11  1  0
  9 12  1  0
 13 14  2  0
 13 19  1  0
 14 15  1  0
 15 16  2  0
 16 17  1  0
 16 18  1  0
 18 19  2  0
M  END
$$$$
