
     RDKit          3D

 19 20  0  0  0  0  0  0  0  0999 V2000
    4.9934  -17.2161    7.5174 C   0  0  0  0  0  0  0  0  0  0  0  0
    6.2887  -17.2243    7.9366 C   0  0  0  0  0  0  0  0  0  0  0  0
    7.0760  -16.1165    7.7018 C   0  0  0  0  0  0  0  0  0  0  0  0
    8.3995  -16.0717    8.1068 O   0  0  0  0  0  0  0  0  0  0  0  0
    6.5344  -15.0307    7.0502 C   0  0  0  0  0  0  0  0  0  0  0  0
    5.2182  -15.0563    6.6391 C   0  0  0  0  0  0  0  0  0  0  0  0
    4.3808  -16.1573    6.8551 C   0  0  0  0  0  0  0  0  0  0  0  0
    2.9661  -16.1937    6.4093 C   0  0  1  0  0  0  0  0  0  0  0  0
    2.7170  -16.8588    5.1094 C   0  0  1  0  0  0  0  0  0  0  0  0
    3.7031  -15.9737    3.8865 Cl  0  0  0  0  0  0  0  0  0  0  0  0
    3.0777  -18.5492    4.9694 Cl  0  0  0  0  0  0  0  0  0  0  0  0
    1.0203  -16.5897    4.6567 Cl  0  0  0  0  0  0  0  0  0  0  0  0
    2.0118  -16.4857    7.4949 C   0  0  0  0  0  0  0  0  0  0  0  0
    1.6543  -17.7897    7.8653 C   0  0  0  0  0  0  0  0  0  0  0  0
    0.7606  -18.0582    8.8772 C   0  0  0  0  0  0  0  0  0  0  0  0
    0.1673  -17.0340    9.5836 C   0  0  0  0  0  0  0  0  0  0  0  0
   -0.7365  -17.3138   10.6069 O   0  0  0  0  0  0  0  0  0  0  0  0
    0.5058  -15.7445    9.2344 C   0  0  0  0  0  0  0  0  0  0  0  0
    1.4144  -15.4704    8.2055 C   0  0  0  0  0  0  0  0  0  0  0  0
  1  2  2  0
  1  7  1  0
  2  3  1  0
  3  4  1  0
  3  5  2  0
  5  6  1  0
  6  7  2  0
  8  7  1  1
  8  9  1  0
  8 13  1  0
  9 10  1  6
  9 11  1  0
  9 12  1  0
 13 14  2  0
 13 19  1  0
 14 15  1  0
 15 16  2  0
 16 17  1  0
 16 18  1  0
 18 19  2  0
M  END
$$$$
