
     RDKit          3D

 19 20  0  0  0  0  0  0  0  0999 V2000
    5.5413  -17.5043    8.1476 C   0  0  0  0  0  0  0  0  0  0  0  0
    6.7894  -17.2089    8.6043 C   0  0  0  0  0  0  0  0  0  0  0  0
    7.3536  -15.9943    8.2745 C   0  0  0  0  0  0  0  0  0  0  0  0
    8.6195  -15.6430    8.7123 O   0  0  0  0  0  0  0  0  0  0  0  0
    6.6425  -15.1111    7.4927 C   0  0  0  0  0  0  0  0  0  0  0  0
    5.3802  -15.4428    7.0470 C   0  0  0  0  0  0  0  0  0  0  0  0
    4.7667  -16.6628    7.3559 C   0  0  0  0  0  0  0  0  0  0  0  0
    3.4119  -17.0284    6.8738 C   0  0  1  0  0  0  0  0  0  0  0  0
    2.2798  -16.4736    7.6513 C   0  0  1  0  0  0  0  0  0  0  0  0
    1.6092  -17.8383    8.6202 Cl  0  0  0  0  0  0  0  0  0  0  0  0
    2.5935  -15.1522    8.7295 Cl  0  0  0  0  0  0  0  0  0  0  0  0
    0.9964  -16.0026    6.5167 Cl  0  0  0  0  0  0  0  0  0  0  0  0
    3.2806  -17.0034    5.4053 C   0  0  0  0  0  0  0  0  0  0  0  0
    3.0843  -18.1601    4.6376 C   0  0  0  0  0  0  0  0  0  0  0  0
    2.9654  -18.1330    3.2666 C   0  0  0  0  0  0  0  0  0  0  0  0
    3.0359  -16.9419    2.5765 C   0  0  0  0  0  0  0  0  0  0  0  0
    2.9145  -16.9226    1.1883 O   0  0  0  0  0  0  0  0  0  0  0  0
    3.2286  -15.7933    3.3133 C   0  0  0  0  0  0  0  0  0  0  0  0
    3.3497  -15.8197    4.7076 C   0  0  0  0  0  0  0  0  0  0  0  0
  1  2  2  0
  1  7  1  0
  2  3  1  0
  3  4  1  0
  3  5  2  0
  5  6  1  0
  6  7  2  0
  8  7  1  6
  8  9  1  0
  8 13  1  0
  9 10  1  1
  9 11  1  0
  9 12  1  0
 13 14  2  0
 13 19  1  0
 14 15  1  0
 15 16  2  0
 16 17  1  0
 16 18  1  0
 18 19  2  0
M  END
$$$$
