
     RDKit          3D

 19 20  0  0  0  0  0  0  0  0999 V2000
    1.6567  -15.4676    8.1534 C   0  0  0  0  0  0  0  0  0  0  0  0
    0.6529  -15.3061    9.0889 C   0  0  0  0  0  0  0  0  0  0  0  0
    0.0393  -16.4008    9.6052 C   0  0  0  0  0  0  0  0  0  0  0  0
   -0.9825  -16.2180   10.5586 O   0  0  0  0  0  0  0  0  0  0  0  0
    0.4156  -17.6501    9.1990 C   0  0  0  0  0  0  0  0  0  0  0  0
    1.4364  -17.7950    8.2483 C   0  0  0  0  0  0  0  0  0  0  0  0
    2.0702  -16.7038    7.7136 C   0  0  0  0  0  0  0  0  0  0  0  0
    3.1281  -16.8688    6.7130 C   0  0  1  0  0  0  0  0  0  0  0  0
    2.7578  -16.5318    5.3005 C   0  0  1  0  0  0  0  0  0  0  0  0
    2.2562  -18.0166    4.4114 Cl  0  0  0  0  0  0  0  0  0  0  0  0
    1.4852  -15.3598    5.0931 Cl  0  0  0  0  0  0  0  0  0  0  0  0
    4.2819  -16.0103    4.4926 Cl  0  0  0  0  0  0  0  0  0  0  0  0
    4.4331  -16.3440    7.1482 C   0  0  0  0  0  0  0  0  0  0  0  0
    4.8203  -15.0204    7.0682 C   0  0  0  0  0  0  0  0  0  0  0  0
    6.0603  -14.5852    7.4958 C   0  0  0  0  0  0  0  0  0  0  0  0
    6.9710  -15.4560    8.0240 C   0  0  0  0  0  0  0  0  0  0  0  0
    8.2192  -14.9957    8.4505 O   0  0  0  0  0  0  0  0  0  0  0  0
    6.6192  -16.7896    8.1205 C   0  0  0  0  0  0  0  0  0  0  0  0
    5.3716  -17.2029    7.6857 C   0  0  0  0  0  0  0  0  0  0  0  0
  1  2  2  0
  1  7  1  0
  2  3  1  0
  3  4  1  0
  3  5  2  0
  5  6  1  0
  6  7  2  0
  8  7  1  1
  8  9  1  0
  8 13  1  0
  9 10  1  6
  9 11  1  0
  9 12  1  0
 13 14  2  0
 13 19  1  0
 14 15  1  0
 15 16  2  0
 16 17  1  0
 16 18  1  0
 18 19  2  0
M  END
$$$$
