
     RDKit          3D

 19 20  0  0  0  0  0  0  0  0999 V2000
    5.5782  -17.3444    7.9375 C   0  0  0  0  0  0  0  0  0  0  0  0
    6.8300  -16.9910    8.4034 C   0  0  0  0  0  0  0  0  0  0  0  0
    7.3514  -15.7843    8.0664 C   0  0  0  0  0  0  0  0  0  0  0  0
    8.6295  -15.4398    8.5505 O   0  0  0  0  0  0  0  0  0  0  0  0
    6.6393  -14.9302    7.2723 C   0  0  0  0  0  0  0  0  0  0  0  0
    5.3702  -15.3057    6.8084 C   0  0  0  0  0  0  0  0  0  0  0  0
    4.8237  -16.5191    7.1362 C   0  0  0  0  0  0  0  0  0  0  0  0
    3.5010  -16.9036    6.6361 C   0  0  1  0  0  0  0  0  0  0  0  0
    2.3286  -16.2506    7.3033 C   0  0  1  0  0  0  0  0  0  0  0  0
    0.7857  -16.9354    6.6732 Cl  0  0  0  0  0  0  0  0  0  0  0  0
    2.2646  -16.3655    9.0408 Cl  0  0  0  0  0  0  0  0  0  0  0  0
    2.3260  -14.5359    6.7486 Cl  0  0  0  0  0  0  0  0  0  0  0  0
    3.4222  -16.9542    5.1667 C   0  0  0  0  0  0  0  0  0  0  0  0
    3.5406  -15.8616    4.3298 C   0  0  0  0  0  0  0  0  0  0  0  0
    3.4604  -15.9710    2.9545 C   0  0  0  0  0  0  0  0  0  0  0  0
    3.2579  -17.1808    2.3528 C   0  0  0  0  0  0  0  0  0  0  0  0
    3.1798  -17.2699    0.9608 O   0  0  0  0  0  0  0  0  0  0  0  0
    3.1346  -18.2979    3.1581 C   0  0  0  0  0  0  0  0  0  0  0  0
    3.2182  -18.1645    4.5334 C   0  0  0  0  0  0  0  0  0  0  0  0
  1  2  2  0
  1  7  1  0
  2  3  1  0
  3  4  1  0
  3  5  2  0
  5  6  1  0
  6  7  2  0
  8  7  1  6
  8  9  1  0
  8 13  1  0
  9 10  1  6
  9 11  1  0
  9 12  1  0
 13 14  2  0
 13 19  1  0
 14 15  1  0
 15 16  2  0
 16 17  1  0
 16 18  1  0
 18 19  2  0
M  END
$$$$
