
     RDKit          3D

 19 20  0  0  0  0  0  0  0  0999 V2000
    1.8403  -15.9127    8.1921 C   0  0  0  0  0  0  0  0  0  0  0  0
    0.8815  -15.8570    9.1571 C   0  0  0  0  0  0  0  0  0  0  0  0
    0.1712  -16.9991    9.4627 C   0  0  0  0  0  0  0  0  0  0  0  0
   -0.8145  -16.9984   10.4353 O   0  0  0  0  0  0  0  0  0  0  0  0
    0.4479  -18.1661    8.7857 C   0  0  0  0  0  0  0  0  0  0  0  0
    1.4260  -18.1869    7.8136 C   0  0  0  0  0  0  0  0  0  0  0  0
    2.1727  -17.0538    7.4693 C   0  0  0  0  0  0  0  0  0  0  0  0
    3.2215  -17.0680    6.4198 C   0  0  1  0  0  0  0  0  0  0  0  0
    2.7845  -16.6533    5.0666 C   0  0  1  0  0  0  0  0  0  0  0  0
    4.2320  -15.9444    4.2583 Cl  0  0  0  0  0  0  0  0  0  0  0  0
    2.1175  -17.8590    4.0136 Cl  0  0  0  0  0  0  0  0  0  0  0  0
    1.6187  -15.3235    5.2355 Cl  0  0  0  0  0  0  0  0  0  0  0  0
    4.5249  -16.5543    6.8800 C   0  0  0  0  0  0  0  0  0  0  0  0
    5.4549  -17.3442    7.5703 C   0  0  0  0  0  0  0  0  0  0  0  0
    6.6693  -16.8602    8.0010 C   0  0  0  0  0  0  0  0  0  0  0  0
    7.0293  -15.5504    7.7665 C   0  0  0  0  0  0  0  0  0  0  0  0
    8.2607  -15.0677    8.2057 O   0  0  0  0  0  0  0  0  0  0  0  0
    6.1283  -14.7575    7.0892 C   0  0  0  0  0  0  0  0  0  0  0  0
    4.8930  -15.2487    6.6507 C   0  0  0  0  0  0  0  0  0  0  0  0
  1  2  2  0
  1  7  1  0
  2  3  1  0
  3  4  1  0
  3  5  2  0
  5  6  1  0
  6  7  2  0
  8  7  1  1
  8  9  1  0
  8 13  1  0
  9 10  1  6
  9 11  1  0
  9 12  1  0
 13 14  2  0
 13 19  1  0
 14 15  1  0
 15 16  2  0
 16 17  1  0
 16 18  1  0
 18 19  2  0
M  END
$$$$
