
     RDKit          3D

 19 20  0  0  0  0  0  0  0  0999 V2000
    4.8065  -14.7789    7.0522 C   0  0  0  0  0  0  0  0  0  0  0  0
    6.1414  -14.5808    7.2318 C   0  0  0  0  0  0  0  0  0  0  0  0
    6.9936  -15.6636    7.1716 C   0  0  0  0  0  0  0  0  0  0  0  0
    8.3596  -15.5187    7.3469 O   0  0  0  0  0  0  0  0  0  0  0  0
    6.4750  -16.9168    6.9319 C   0  0  0  0  0  0  0  0  0  0  0  0
    5.1172  -17.0815    6.7547 C   0  0  0  0  0  0  0  0  0  0  0  0
    4.2138  -16.0132    6.8068 C   0  0  0  0  0  0  0  0  0  0  0  0
    2.7514  -16.1848    6.6239 C   0  0  1  0  0  0  0  0  0  0  0  0
    2.3126  -16.5649    5.2612 C   0  0  1  0  0  0  0  0  0  0  0  0
    1.0793  -17.8641    5.4664 Cl  0  0  0  0  0  0  0  0  0  0  0  0
    1.6339  -15.3353    4.2441 Cl  0  0  0  0  0  0  0  0  0  0  0  0
    3.6830  -17.3204    4.4200 Cl  0  0  0  0  0  0  0  0  0  0  0  0
    2.0924  -16.8760    7.7475 C   0  0  0  0  0  0  0  0  0  0  0  0
    1.1869  -16.2399    8.6083 C   0  0  0  0  0  0  0  0  0  0  0  0
    0.5763  -16.8879    9.6580 C   0  0  0  0  0  0  0  0  0  0  0  0
    0.8353  -18.2177    9.9120 C   0  0  0  0  0  0  0  0  0  0  0  0
    0.2130  -18.8668   10.9768 O   0  0  0  0  0  0  0  0  0  0  0  0
    1.7230  -18.8609    9.0768 C   0  0  0  0  0  0  0  0  0  0  0  0
    2.3446  -18.2030    8.0090 C   0  0  0  0  0  0  0  0  0  0  0  0
  1  2  2  0
  1  7  1  0
  2  3  1  0
  3  4  1  0
  3  5  2  0
  5  6  1  0
  6  7  2  0
  8  7  1  6
  8  9  1  0
  8 13  1  0
  9 10  1  1
  9 11  1  0
  9 12  1  0
 13 14  2  0
 13 19  1  0
 14 15  1  0
 15 16  2  0
 16 17  1  0
 16 18  1  0
 18 19  2  0
M  END
$$$$
