
     RDKit          3D

 19 20  0  0  0  0  0  0  0  0999 V2000
    5.0752  -14.7886    6.7962 C   0  0  0  0  0  0  0  0  0  0  0  0
    6.3766  -14.7434    7.2577 C   0  0  0  0  0  0  0  0  0  0  0  0
    6.9036  -15.8300    7.8767 C   0  0  0  0  0  0  0  0  0  0  0  0
    8.2327  -15.7667    8.3412 O   0  0  0  0  0  0  0  0  0  0  0  0
    6.1478  -16.9568    8.0392 C   0  0  0  0  0  0  0  0  0  0  0  0
    4.8285  -16.9849    7.5646 C   0  0  0  0  0  0  0  0  0  0  0  0
    4.2757  -15.8994    6.9362 C   0  0  0  0  0  0  0  0  0  0  0  0
    2.8923  -15.9381    6.4544 C   0  0  1  0  0  0  0  0  0  0  0  0
    2.6694  -16.6335    5.1456 C   0  0  1  0  0  0  0  0  0  0  0  0
    3.6558  -15.8635    3.8492 Cl  0  0  0  0  0  0  0  0  0  0  0  0
    3.0204  -18.3398    5.1067 Cl  0  0  0  0  0  0  0  0  0  0  0  0
    0.9616  -16.2939    4.6810 Cl  0  0  0  0  0  0  0  0  0  0  0  0
    1.9157  -16.2749    7.5035 C   0  0  0  0  0  0  0  0  0  0  0  0
    1.2223  -15.3536    8.2642 C   0  0  0  0  0  0  0  0  0  0  0  0
    0.3140  -15.7298    9.2354 C   0  0  0  0  0  0  0  0  0  0  0  0
    0.0575  -17.0475    9.4900 C   0  0  0  0  0  0  0  0  0  0  0  0
   -0.8646  -17.4068   10.4762 O   0  0  0  0  0  0  0  0  0  0  0  0
    0.7325  -17.9992    8.7484 C   0  0  0  0  0  0  0  0  0  0  0  0
    1.6380  -17.5990    7.7807 C   0  0  0  0  0  0  0  0  0  0  0  0
  1  2  2  0
  1  7  1  0
  2  3  1  0
  3  4  1  0
  3  5  2  0
  5  6  1  0
  6  7  2  0
  8  7  1  1
  8  9  1  0
  8 13  1  0
  9 10  1  6
  9 11  1  0
  9 12  1  0
 13 14  2  0
 13 19  1  0
 14 15  1  0
 15 16  2  0
 16 17  1  0
 16 18  1  0
 18 19  2  0
M  END
$$$$
