
     RDKit          3D

 19 20  0  0  0  0  0  0  0  0999 V2000
    5.1852  -14.9031    6.8438 C   0  0  0  0  0  0  0  0  0  0  0  0
    6.4880  -14.8815    7.2387 C   0  0  0  0  0  0  0  0  0  0  0  0
    7.0309  -16.0087    7.8193 C   0  0  0  0  0  0  0  0  0  0  0  0
    8.3502  -16.0412    8.2389 O   0  0  0  0  0  0  0  0  0  0  0  0
    6.2440  -17.1267    7.9854 C   0  0  0  0  0  0  0  0  0  0  0  0
    4.9277  -17.1138    7.5738 C   0  0  0  0  0  0  0  0  0  0  0  0
    4.3332  -15.9941    6.9798 C   0  0  0  0  0  0  0  0  0  0  0  0
    2.9159  -15.9716    6.5412 C   0  0  1  0  0  0  0  0  0  0  0  0
    2.6576  -16.4693    5.1702 C   0  0  1  0  0  0  0  0  0  0  0  0
    0.9734  -15.9753    4.7573 Cl  0  0  0  0  0  0  0  0  0  0  0  0
    3.7025  -15.9366    3.8928 Cl  0  0  0  0  0  0  0  0  0  0  0  0
    2.6505  -18.2454    5.2093 Cl  0  0  0  0  0  0  0  0  0  0  0  0
    1.9668  -16.3943    7.5877 C   0  0  0  0  0  0  0  0  0  0  0  0
    1.6858  -17.7399    7.8636 C   0  0  0  0  0  0  0  0  0  0  0  0
    0.7968  -18.1304    8.8392 C   0  0  0  0  0  0  0  0  0  0  0  0
    0.1315  -17.1946    9.6018 C   0  0  0  0  0  0  0  0  0  0  0  0
   -0.7672  -17.5979   10.5878 O   0  0  0  0  0  0  0  0  0  0  0  0
    0.3941  -15.8662    9.3458 C   0  0  0  0  0  0  0  0  0  0  0  0
    1.2979  -15.4679    8.3539 C   0  0  0  0  0  0  0  0  0  0  0  0
  1  2  2  0
  1  7  1  0
  2  3  1  0
  3  4  1  0
  3  5  2  0
  5  6  1  0
  6  7  2  0
  8  7  1  1
  8  9  1  0
  8 13  1  0
  9 10  1  6
  9 11  1  0
  9 12  1  0
 13 14  2  0
 13 19  1  0
 14 15  1  0
 15 16  2  0
 16 17  1  0
 16 18  1  0
 18 19  2  0
M  END
$$$$
