
     RDKit          3D

 19 20  0  0  0  0  0  0  0  0999 V2000
    5.1399  -16.5428    8.2584 C   0  0  0  0  0  0  0  0  0  0  0  0
    6.3530  -16.1541    8.7390 C   0  0  0  0  0  0  0  0  0  0  0  0
    7.0597  -15.1798    8.0654 C   0  0  0  0  0  0  0  0  0  0  0  0
    8.2977  -14.7473    8.5104 O   0  0  0  0  0  0  0  0  0  0  0  0
    6.5228  -14.6248    6.9250 C   0  0  0  0  0  0  0  0  0  0  0  0
    5.2911  -15.0423    6.4660 C   0  0  0  0  0  0  0  0  0  0  0  0
    4.5373  -16.0272    7.1156 C   0  0  0  0  0  0  0  0  0  0  0  0
    3.2149  -16.4856    6.6230 C   0  0  1  0  0  0  0  0  0  0  0  0
    2.1467  -15.4598    6.5949 C   0  0  1  0  0  0  0  0  0  0  0  0
    0.9303  -15.9564    7.8297 Cl  0  0  0  0  0  0  0  0  0  0  0  0
    2.5838  -13.8104    6.9040 Cl  0  0  0  0  0  0  0  0  0  0  0  0
    1.3179  -15.5547    5.0264 Cl  0  0  0  0  0  0  0  0  0  0  0  0
    3.2980  -17.3856    5.4579 C   0  0  0  0  0  0  0  0  0  0  0  0
    3.0868  -18.7688    5.5465 C   0  0  0  0  0  0  0  0  0  0  0  0
    3.1683  -19.6061    4.4571 C   0  0  0  0  0  0  0  0  0  0  0  0
    3.4675  -19.1089    3.2068 C   0  0  0  0  0  0  0  0  0  0  0  0
    3.5483  -19.9630    2.1086 O   0  0  0  0  0  0  0  0  0  0  0  0
    3.6788  -17.7513    3.0990 C   0  0  0  0  0  0  0  0  0  0  0  0
    3.5961  -16.8988    4.2062 C   0  0  0  0  0  0  0  0  0  0  0  0
  1  2  2  0
  1  7  1  0
  2  3  1  0
  3  4  1  0
  3  5  2  0
  5  6  1  0
  6  7  2  0
  8  7  1  6
  8  9  1  0
  8 13  1  0
  9 10  1  1
  9 11  1  0
  9 12  1  0
 13 14  2  0
 13 19  1  0
 14 15  1  0
 15 16  2  0
 16 17  1  0
 16 18  1  0
 18 19  2  0
M  END
$$$$
