
     RDKit          3D

 19 20  0  0  0  0  0  0  0  0999 V2000
    5.4457  -17.3857    7.7424 C   0  0  0  0  0  0  0  0  0  0  0  0
    6.6751  -17.0341    8.2098 C   0  0  0  0  0  0  0  0  0  0  0  0
    7.1940  -15.8021    7.8702 C   0  0  0  0  0  0  0  0  0  0  0  0
    8.4393  -15.3942    8.3181 O   0  0  0  0  0  0  0  0  0  0  0  0
    6.4578  -14.9588    7.0680 C   0  0  0  0  0  0  0  0  0  0  0  0
    5.2155  -15.3471    6.6119 C   0  0  0  0  0  0  0  0  0  0  0  0
    4.6478  -16.5867    6.9301 C   0  0  0  0  0  0  0  0  0  0  0  0
    3.3149  -17.0131    6.4370 C   0  0  1  0  0  0  0  0  0  0  0  0
    2.1632  -16.6443    7.2923 C   0  0  1  0  0  0  0  0  0  0  0  0
    2.2060  -14.8495    7.4592 Cl  0  0  0  0  0  0  0  0  0  0  0  0
    0.5732  -17.0977    6.7691 Cl  0  0  0  0  0  0  0  0  0  0  0  0
    2.4431  -17.2936    8.9221 Cl  0  0  0  0  0  0  0  0  0  0  0  0
    3.1401  -16.8414    4.9829 C   0  0  0  0  0  0  0  0  0  0  0  0
    2.8885  -15.5976    4.3869 C   0  0  0  0  0  0  0  0  0  0  0  0
    2.7228  -15.4418    3.0294 C   0  0  0  0  0  0  0  0  0  0  0  0
    2.7991  -16.5257    2.1811 C   0  0  0  0  0  0  0  0  0  0  0  0
    2.6303  -16.3600    0.8077 O   0  0  0  0  0  0  0  0  0  0  0  0
    3.0458  -17.7575    2.7479 C   0  0  0  0  0  0  0  0  0  0  0  0
    3.2144  -17.9170    4.1283 C   0  0  0  0  0  0  0  0  0  0  0  0
  1  2  2  0
  1  7  1  0
  2  3  1  0
  3  4  1  0
  3  5  2  0
  5  6  1  0
  6  7  2  0
  8  7  1  1
  8  9  1  0
  8 13  1  0
  9 10  1  1
  9 11  1  0
  9 12  1  0
 13 14  2  0
 13 19  1  0
 14 15  1  0
 15 16  2  0
 16 17  1  0
 16 18  1  0
 18 19  2  0
M  END
$$$$
