
     RDKit          3D

 19 20  0  0  0  0  0  0  0  0999 V2000
    2.9726  -15.2896    4.1223 C   0  0  0  0  0  0  0  0  0  0  0  0
    2.9087  -15.6678    2.8160 C   0  0  0  0  0  0  0  0  0  0  0  0
    3.0072  -17.0070    2.5006 C   0  0  0  0  0  0  0  0  0  0  0  0
    2.9484  -17.4465    1.1887 O   0  0  0  0  0  0  0  0  0  0  0  0
    3.1677  -17.9275    3.5123 C   0  0  0  0  0  0  0  0  0  0  0  0
    3.2285  -17.5094    4.8251 C   0  0  0  0  0  0  0  0  0  0  0  0
    3.1330  -16.1621    5.1937 C   0  0  0  0  0  0  0  0  0  0  0  0
    3.2046  -15.7052    6.6036 C   0  0  1  0  0  0  0  0  0  0  0  0
    2.1031  -16.1578    7.4844 C   0  0  1  0  0  0  0  0  0  0  0  0
    0.6883  -16.4714    6.4114 Cl  0  0  0  0  0  0  0  0  0  0  0  0
    2.3594  -17.5672    8.4617 Cl  0  0  0  0  0  0  0  0  0  0  0  0
    1.6304  -14.8042    8.5335 Cl  0  0  0  0  0  0  0  0  0  0  0  0
    4.5651  -15.7494    7.1706 C   0  0  0  0  0  0  0  0  0  0  0  0
    5.4774  -14.6920    7.0469 C   0  0  0  0  0  0  0  0  0  0  0  0
    6.7477  -14.7383    7.5749 C   0  0  0  0  0  0  0  0  0  0  0  0
    7.1851  -15.8502    8.2620 C   0  0  0  0  0  0  0  0  0  0  0  0
    8.4728  -15.8896    8.7938 O   0  0  0  0  0  0  0  0  0  0  0  0
    6.3030  -16.9007    8.3945 C   0  0  0  0  0  0  0  0  0  0  0  0
    5.0109  -16.8547    7.8579 C   0  0  0  0  0  0  0  0  0  0  0  0
  1  2  2  0
  1  7  1  0
  2  3  1  0
  3  4  1  0
  3  5  2  0
  5  6  1  0
  6  7  2  0
  8  7  1  6
  8  9  1  0
  8 13  1  0
  9 10  1  6
  9 11  1  0
  9 12  1  0
 13 14  2  0
 13 19  1  0
 14 15  1  0
 15 16  2  0
 16 17  1  0
 16 18  1  0
 18 19  2  0
M  END
$$$$
