
     RDKit          3D

 19 20  0  0  0  0  0  0  0  0999 V2000
    4.5740  -15.4759    4.7628 C   0  0  0  0  0  0  0  0  0  0  0  0
    5.0579  -14.5353    3.8739 C   0  0  0  0  0  0  0  0  0  0  0  0
    4.7276  -13.2294    4.0384 C   0  0  0  0  0  0  0  0  0  0  0  0
    5.2300  -12.2832    3.1226 O   0  0  0  0  0  0  0  0  0  0  0  0
    3.9223  -12.8541    5.0767 C   0  0  0  0  0  0  0  0  0  0  0  0
    3.4402  -13.8225    5.9692 C   0  0  0  0  0  0  0  0  0  0  0  0
    3.7610  -15.1469    5.8226 C   0  0  0  0  0  0  0  0  0  0  0  0
    3.2418  -16.1502    6.7561 C   0  0  1  0  0  0  0  0  0  0  0  0
    2.1146  -16.9992    6.2515 C   0  0  1  0  0  0  0  0  0  0  0  0
    1.5282  -18.1015    7.5506 Cl  0  0  0  0  0  0  0  0  0  0  0  0
    0.7223  -16.1507    5.6368 Cl  0  0  0  0  0  0  0  0  0  0  0  0
    2.8277  -18.0954    5.0116 Cl  0  0  0  0  0  0  0  0  0  0  0  0
    4.2972  -16.8897    7.4681 C   0  0  0  0  0  0  0  0  0  0  0  0
    5.0952  -16.3652    8.4663 C   0  0  0  0  0  0  0  0  0  0  0  0
    6.0705  -17.1100    9.1019 C   0  0  0  0  0  0  0  0  0  0  0  0
    6.2922  -18.4159    8.7670 C   0  0  0  0  0  0  0  0  0  0  0  0
    7.2832  -19.1516    9.4217 O   0  0  0  0  0  0  0  0  0  0  0  0
    5.5128  -18.9761    7.7719 C   0  0  0  0  0  0  0  0  0  0  0  0
    4.5417  -18.2109    7.1490 C   0  0  0  0  0  0  0  0  0  0  0  0
  1  2  2  0
  1  7  1  0
  2  3  1  0
  3  4  1  0
  3  5  2  0
  5  6  1  0
  6  7  2  0
  8  7  1  6
  8  9  1  0
  8 13  1  0
  9 10  1  1
  9 11  1  0
  9 12  1  0
 13 14  2  0
 13 19  1  0
 14 15  1  0
 15 16  2  0
 16 17  1  0
 16 18  1  0
 18 19  2  0
M  END
$$$$
