
     RDKit          3D

 19 20  0  0  0  0  0  0  0  0999 V2000
    2.6518  -18.5351    7.7448 C   0  0  0  0  0  0  0  0  0  0  0  0
    1.8431  -19.0431    8.7152 C   0  0  0  0  0  0  0  0  0  0  0  0
    0.8436  -18.2493    9.2379 C   0  0  0  0  0  0  0  0  0  0  0  0
   -0.0070  -18.7157   10.2261 O   0  0  0  0  0  0  0  0  0  0  0  0
    0.6877  -16.9645    8.7668 C   0  0  0  0  0  0  0  0  0  0  0  0
    1.5249  -16.4819    7.7829 C   0  0  0  0  0  0  0  0  0  0  0  0
    2.5526  -17.2498    7.2222 C   0  0  0  0  0  0  0  0  0  0  0  0
    3.4610  -16.7341    6.1684 C   0  0  1  0  0  0  0  0  0  0  0  0
    2.8261  -15.8993    5.1224 C   0  0  1  0  0  0  0  0  0  0  0  0
    1.7301  -16.9900    4.1949 Cl  0  0  0  0  0  0  0  0  0  0  0  0
    1.9097  -14.5141    5.6212 Cl  0  0  0  0  0  0  0  0  0  0  0  0
    4.0824  -15.3807    3.9783 Cl  0  0  0  0  0  0  0  0  0  0  0  0
    4.7621  -16.2706    6.6848 C   0  0  0  0  0  0  0  0  0  0  0  0
    5.9875  -16.7754    6.2273 C   0  0  0  0  0  0  0  0  0  0  0  0
    7.1999  -16.3425    6.7142 C   0  0  0  0  0  0  0  0  0  0  0  0
    7.2611  -15.3737    7.6928 C   0  0  0  0  0  0  0  0  0  0  0  0
    8.4926  -14.9404    8.1807 O   0  0  0  0  0  0  0  0  0  0  0  0
    6.0670  -14.8648    8.1559 C   0  0  0  0  0  0  0  0  0  0  0  0
    4.8334  -15.3044    7.6615 C   0  0  0  0  0  0  0  0  0  0  0  0
  1  2  2  0
  1  7  1  0
  2  3  1  0
  3  4  1  0
  3  5  2  0
  5  6  1  0
  6  7  2  0
  8  7  1  1
  8  9  1  0
  8 13  1  0
  9 10  1  6
  9 11  1  0
  9 12  1  0
 13 14  2  0
 13 19  1  0
 14 15  1  0
 15 16  2  0
 16 17  1  0
 16 18  1  0
 18 19  2  0
M  END
$$$$
