
     RDKit          3D

 19 20  0  0  0  0  0  0  0  0999 V2000
    1.9545  -15.5110    8.1059 C   0  0  0  0  0  0  0  0  0  0  0  0
    1.0260  -15.4218    9.1251 C   0  0  0  0  0  0  0  0  0  0  0  0
    0.3848  -16.5422    9.5438 C   0  0  0  0  0  0  0  0  0  0  0  0
   -0.5593  -16.4333   10.5846 O   0  0  0  0  0  0  0  0  0  0  0  0
    0.6596  -17.7457    8.9579 C   0  0  0  0  0  0  0  0  0  0  0  0
    1.6051  -17.8174    7.9246 C   0  0  0  0  0  0  0  0  0  0  0  0
    2.2649  -16.6991    7.4858 C   0  0  0  0  0  0  0  0  0  0  0  0
    3.2428  -16.7860    6.3979 C   0  0  1  0  0  0  0  0  0  0  0  0
    2.7432  -16.4243    5.0320 C   0  0  1  0  0  0  0  0  0  0  0  0
    1.5939  -15.0401    5.1299 Cl  0  0  0  0  0  0  0  0  0  0  0  0
    3.9538  -15.9985    3.8533 Cl  0  0  0  0  0  0  0  0  0  0  0  0
    1.7366  -17.8139    4.4812 Cl  0  0  0  0  0  0  0  0  0  0  0  0
    4.5556  -16.2157    6.7432 C   0  0  0  0  0  0  0  0  0  0  0  0
    4.9598  -14.9272    6.4525 C   0  0  0  0  0  0  0  0  0  0  0  0
    6.2063  -14.4456    6.8047 C   0  0  0  0  0  0  0  0  0  0  0  0
    7.1069  -15.2328    7.4650 C   0  0  0  0  0  0  0  0  0  0  0  0
    8.3620  -14.7267    7.8120 O   0  0  0  0  0  0  0  0  0  0  0  0
    6.7381  -16.5291    7.7734 C   0  0  0  0  0  0  0  0  0  0  0  0
    5.4841  -16.9900    7.4107 C   0  0  0  0  0  0  0  0  0  0  0  0
  1  2  2  0
  1  7  1  0
  2  3  1  0
  3  4  1  0
  3  5  2  0
  5  6  1  0
  6  7  2  0
  8  7  1  1
  8  9  1  0
  8 13  1  0
  9 10  1  1
  9 11  1  0
  9 12  1  0
 13 14  2  0
 13 19  1  0
 14 15  1  0
 15 16  2  0
 16 17  1  0
 16 18  1  0
 18 19  2  0
M  END
$$$$
