
     RDKit          3D

 19 20  0  0  0  0  0  0  0  0999 V2000
    5.2990  -16.8395    6.9389 C   0  0  0  0  0  0  0  0  0  0  0  0
    6.6115  -16.6388    7.2399 C   0  0  0  0  0  0  0  0  0  0  0  0
    7.0878  -15.3477    7.3333 C   0  0  0  0  0  0  0  0  0  0  0  0
    8.4135  -15.0869    7.6367 O   0  0  0  0  0  0  0  0  0  0  0  0
    6.2262  -14.2946    7.1203 C   0  0  0  0  0  0  0  0  0  0  0  0
    4.9023  -14.5341    6.8170 C   0  0  0  0  0  0  0  0  0  0  0  0
    4.3735  -15.8262    6.7117 C   0  0  0  0  0  0  0  0  0  0  0  0
    2.9519  -16.0906    6.3790 C   0  0  1  0  0  0  0  0  0  0  0  0
    2.6553  -16.3072    4.9441 C   0  0  1  0  0  0  0  0  0  0  0  0
    3.4022  -14.9277    4.0551 Cl  0  0  0  0  0  0  0  0  0  0  0  0
    3.1990  -17.7794    4.2063 Cl  0  0  0  0  0  0  0  0  0  0  0  0
    0.9020  -16.1523    4.7031 Cl  0  0  0  0  0  0  0  0  0  0  0  0
    2.2781  -16.9875    7.3361 C   0  0  0  0  0  0  0  0  0  0  0  0
    2.3704  -18.3848    7.2662 C   0  0  0  0  0  0  0  0  0  0  0  0
    1.7374  -19.2188    8.1597 C   0  0  0  0  0  0  0  0  0  0  0  0
    0.9698  -18.7039    9.1823 C   0  0  0  0  0  0  0  0  0  0  0  0
    0.3319  -19.5548   10.0830 O   0  0  0  0  0  0  0  0  0  0  0  0
    0.8665  -17.3323    9.2679 C   0  0  0  0  0  0  0  0  0  0  0  0
    1.5098  -16.4831    8.3599 C   0  0  0  0  0  0  0  0  0  0  0  0
  1  2  2  0
  1  7  1  0
  2  3  1  0
  3  4  1  0
  3  5  2  0
  5  6  1  0
  6  7  2  0
  8  7  1  6
  8  9  1  0
  8 13  1  0
  9 10  1  6
  9 11  1  0
  9 12  1  0
 13 14  2  0
 13 19  1  0
 14 15  1  0
 15 16  2  0
 16 17  1  0
 16 18  1  0
 18 19  2  0
M  END
$$$$
