
     RDKit          3D

 19 20  0  0  0  0  0  0  0  0999 V2000
    1.3182  -18.0781    8.0851 C   0  0  0  0  0  0  0  0  0  0  0  0
    0.3794  -18.0591    9.0709 C   0  0  0  0  0  0  0  0  0  0  0  0
    0.0707  -16.8602    9.6792 C   0  0  0  0  0  0  0  0  0  0  0  0
   -0.8761  -16.7840   10.6868 O   0  0  0  0  0  0  0  0  0  0  0  0
    0.7182  -15.7136    9.2759 C   0  0  0  0  0  0  0  0  0  0  0  0
    1.6643  -15.7691    8.2740 C   0  0  0  0  0  0  0  0  0  0  0  0
    2.0106  -16.9618    7.6276 C   0  0  0  0  0  0  0  0  0  0  0  0
    3.0324  -17.0293    6.5538 C   0  0  1  0  0  0  0  0  0  0  0  0
    2.5654  -16.6655    5.1961 C   0  0  1  0  0  0  0  0  0  0  0  0
    2.1261  -18.2105    4.3769 Cl  0  0  0  0  0  0  0  0  0  0  0  0
    1.2204  -15.5802    5.0536 Cl  0  0  0  0  0  0  0  0  0  0  0  0
    3.9412  -16.0043    4.2871 Cl  0  0  0  0  0  0  0  0  0  0  0  0
    4.3516  -16.5107    6.9603 C   0  0  0  0  0  0  0  0  0  0  0  0
    4.7717  -15.2005    6.6910 C   0  0  0  0  0  0  0  0  0  0  0  0
    6.0052  -14.7211    7.0693 C   0  0  0  0  0  0  0  0  0  0  0  0
    6.8981  -15.5266    7.7430 C   0  0  0  0  0  0  0  0  0  0  0  0
    8.1453  -15.0339    8.1227 O   0  0  0  0  0  0  0  0  0  0  0  0
    6.5038  -16.8183    8.0171 C   0  0  0  0  0  0  0  0  0  0  0  0
    5.2495  -17.3069    7.6329 C   0  0  0  0  0  0  0  0  0  0  0  0
  1  2  2  0
  1  7  1  0
  2  3  1  0
  3  4  1  0
  3  5  2  0
  5  6  1  0
  6  7  2  0
  8  7  1  1
  8  9  1  0
  8 13  1  0
  9 10  1  6
  9 11  1  0
  9 12  1  0
 13 14  2  0
 13 19  1  0
 14 15  1  0
 15 16  2  0
 16 17  1  0
 16 18  1  0
 18 19  2  0
M  END
$$$$
