
     RDKit          3D

 19 20  0  0  0  0  0  0  0  0999 V2000
    2.4972  -14.2932    6.8812 C   0  0  0  0  0  0  0  0  0  0  0  0
    2.4083  -12.9967    6.4751 C   0  0  0  0  0  0  0  0  0  0  0  0
    3.0784  -12.6042    5.3352 C   0  0  0  0  0  0  0  0  0  0  0  0
    3.0221  -11.2984    4.8775 O   0  0  0  0  0  0  0  0  0  0  0  0
    3.8200  -13.5309    4.6366 C   0  0  0  0  0  0  0  0  0  0  0  0
    3.8883  -14.8362    5.0765 C   0  0  0  0  0  0  0  0  0  0  0  0
    3.2257  -15.2811    6.2268 C   0  0  0  0  0  0  0  0  0  0  0  0
    3.3008  -16.6823    6.7091 C   0  0  1  0  0  0  0  0  0  0  0  0
    2.5151  -17.6726    5.9371 C   0  0  1  0  0  0  0  0  0  0  0  0
    3.5550  -19.1370    5.7788 Cl  0  0  0  0  0  0  0  0  0  0  0  0
    0.9774  -18.1706    6.5653 Cl  0  0  0  0  0  0  0  0  0  0  0  0
    2.2925  -17.0506    4.2879 Cl  0  0  0  0  0  0  0  0  0  0  0  0
    4.6549  -17.0921    7.1251 C   0  0  0  0  0  0  0  0  0  0  0  0
    5.0109  -17.2982    8.4654 C   0  0  0  0  0  0  0  0  0  0  0  0
    6.2768  -17.6777    8.8501 C   0  0  0  0  0  0  0  0  0  0  0  0
    7.2686  -17.8751    7.9133 C   0  0  0  0  0  0  0  0  0  0  0  0
    8.5479  -18.2594    8.3105 O   0  0  0  0  0  0  0  0  0  0  0  0
    6.9384  -17.6774    6.5900 C   0  0  0  0  0  0  0  0  0  0  0  0
    5.6513  -17.2915    6.1977 C   0  0  0  0  0  0  0  0  0  0  0  0
  1  2  2  0
  1  7  1  0
  2  3  1  0
  3  4  1  0
  3  5  2  0
  5  6  1  0
  6  7  2  0
  8  7  1  6
  8  9  1  0
  8 13  1  0
  9 10  1  6
  9 11  1  0
  9 12  1  0
 13 14  2  0
 13 19  1  0
 14 15  1  0
 15 16  2  0
 16 17  1  0
 16 18  1  0
 18 19  2  0
M  END
$$$$
