
     RDKit          3D

 19 20  0  0  0  0  0  0  0  0999 V2000
    4.6089  -17.0783    7.5390 C   0  0  0  0  0  0  0  0  0  0  0  0
    5.8896  -17.0768    8.0009 C   0  0  0  0  0  0  0  0  0  0  0  0
    6.6518  -15.9361    7.8587 C   0  0  0  0  0  0  0  0  0  0  0  0
    7.9596  -15.8800    8.3106 O   0  0  0  0  0  0  0  0  0  0  0  0
    6.1005  -14.8282    7.2541 C   0  0  0  0  0  0  0  0  0  0  0  0
    4.7996  -14.8646    6.7975 C   0  0  0  0  0  0  0  0  0  0  0  0
    3.9878  -15.9987    6.9196 C   0  0  0  0  0  0  0  0  0  0  0  0
    2.5900  -16.0464    6.4243 C   0  0  1  0  0  0  0  0  0  0  0  0
    2.3511  -16.9195    5.2519 C   0  0  1  0  0  0  0  0  0  0  0  0
    3.9479  -17.1347    4.4426 Cl  0  0  0  0  0  0  0  0  0  0  0  0
    1.6702  -18.4911    5.5236 Cl  0  0  0  0  0  0  0  0  0  0  0  0
    1.3310  -16.0391    4.0942 Cl  0  0  0  0  0  0  0  0  0  0  0  0
    1.5831  -16.0947    7.5007 C   0  0  0  0  0  0  0  0  0  0  0  0
    1.4432  -17.1897    8.3651 C   0  0  0  0  0  0  0  0  0  0  0  0
    0.5000  -17.2323    9.3666 C   0  0  0  0  0  0  0  0  0  0  0  0
   -0.3649  -16.1776    9.5656 C   0  0  0  0  0  0  0  0  0  0  0  0
   -1.3172  -16.2282   10.5819 O   0  0  0  0  0  0  0  0  0  0  0  0
   -0.2433  -15.0916    8.7260 C   0  0  0  0  0  0  0  0  0  0  0  0
    0.7156  -15.0472    7.7071 C   0  0  0  0  0  0  0  0  0  0  0  0
  1  2  2  0
  1  7  1  0
  2  3  1  0
  3  4  1  0
  3  5  2  0
  5  6  1  0
  6  7  2  0
  8  7  1  1
  8  9  1  0
  8 13  1  0
  9 10  1  6
  9 11  1  0
  9 12  1  0
 13 14  2  0
 13 19  1  0
 14 15  1  0
 15 16  2  0
 16 17  1  0
 16 18  1  0
 18 19  2  0
M  END
$$$$
