
     RDKit          3D

 19 20  0  0  0  0  0  0  0  0999 V2000
    4.4964  -14.5422    5.7410 C   0  0  0  0  0  0  0  0  0  0  0  0
    4.8533  -13.2289    5.7812 C   0  0  0  0  0  0  0  0  0  0  0  0
    4.5549  -12.4875    6.9053 C   0  0  0  0  0  0  0  0  0  0  0  0
    4.8950  -11.1484    6.9989 O   0  0  0  0  0  0  0  0  0  0  0  0
    3.9044  -13.0919    7.9581 C   0  0  0  0  0  0  0  0  0  0  0  0
    3.5573  -14.4246    7.8837 C   0  0  0  0  0  0  0  0  0  0  0  0
    3.8391  -15.2171    6.7645 C   0  0  0  0  0  0  0  0  0  0  0  0
    3.4623  -16.6494    6.6756 C   0  0  1  0  0  0  0  0  0  0  0  0
    2.4521  -16.9873    5.6464 C   0  0  1  0  0  0  0  0  0  0  0  0
    0.9518  -16.0915    6.0911 Cl  0  0  0  0  0  0  0  0  0  0  0  0
    2.8182  -16.6331    3.9888 Cl  0  0  0  0  0  0  0  0  0  0  0  0
    2.0537  -18.7123    5.7951 Cl  0  0  0  0  0  0  0  0  0  0  0  0
    4.6064  -17.5705    6.8064 C   0  0  0  0  0  0  0  0  0  0  0  0
    5.5318  -17.7879    5.7759 C   0  0  0  0  0  0  0  0  0  0  0  0
    6.5968  -18.6510    5.9008 C   0  0  0  0  0  0  0  0  0  0  0  0
    6.8020  -19.3526    7.0694 C   0  0  0  0  0  0  0  0  0  0  0  0
    7.8826  -20.2247    7.1883 O   0  0  0  0  0  0  0  0  0  0  0  0
    5.9029  -19.1527    8.0945 C   0  0  0  0  0  0  0  0  0  0  0  0
    4.8195  -18.2752    7.9686 C   0  0  0  0  0  0  0  0  0  0  0  0
  1  2  2  0
  1  7  1  0
  2  3  1  0
  3  4  1  0
  3  5  2  0
  5  6  1  0
  6  7  2  0
  8  7  1  6
  8  9  1  0
  8 13  1  0
  9 10  1  1
  9 11  1  0
  9 12  1  0
 13 14  2  0
 13 19  1  0
 14 15  1  0
 15 16  2  0
 16 17  1  0
 16 18  1  0
 18 19  2  0
M  END
$$$$
