
     RDKit          3D

 19 20  0  0  0  0  0  0  0  0999 V2000
    4.3311  -17.3427    7.8158 C   0  0  0  0  0  0  0  0  0  0  0  0
    5.3050  -17.9606    8.5764 C   0  0  0  0  0  0  0  0  0  0  0  0
    6.6101  -17.8192    8.2327 C   0  0  0  0  0  0  0  0  0  0  0  0
    7.5906  -18.4561    9.0197 O   0  0  0  0  0  0  0  0  0  0  0  0
    6.9519  -17.0704    7.1418 C   0  0  0  0  0  0  0  0  0  0  0  0
    5.9499  -16.4505    6.3812 C   0  0  0  0  0  0  0  0  0  0  0  0
    4.6256  -16.5794    6.7098 C   0  0  0  0  0  0  0  0  0  0  0  0
    3.5878  -15.9351    5.9003 C   0  0  1  0  0  0  0  0  0  0  0  0
    2.3264  -16.7192    5.7001 C   0  0  1  0  0  0  0  0  0  0  0  0
    1.6517  -17.2396    7.2878 Cl  0  0  0  0  0  0  0  0  0  0  0  0
    1.0426  -15.9130    4.8410 Cl  0  0  0  0  0  0  0  0  0  0  0  0
    2.8119  -18.2525    4.8870 Cl  0  0  0  0  0  0  0  0  0  0  0  0
    3.3828  -14.5154    6.2324 C   0  0  0  0  0  0  0  0  0  0  0  0
    2.7174  -14.0524    7.3510 C   0  0  0  0  0  0  0  0  0  0  0  0
    2.5580  -12.7048    7.6121 C   0  0  0  0  0  0  0  0  0  0  0  0
    3.0580  -11.7571    6.7643 C   0  0  0  0  0  0  0  0  0  0  0  0
    2.8859  -10.3997    7.0465 O   0  0  0  0  0  0  0  0  0  0  0  0
    3.7305  -12.1822    5.6337 C   0  0  0  0  0  0  0  0  0  0  0  0
    3.8782  -13.5374    5.3925 C   0  0  0  0  0  0  0  0  0  0  0  0
  1  2  2  0
  1  7  1  0
  2  3  1  0
  3  4  1  0
  3  5  2  0
  5  6  1  0
  6  7  2  0
  8  7  1  1
  8  9  1  0
  8 13  1  0
  9 10  1  1
  9 11  1  0
  9 12  1  0
 13 14  2  0
 13 19  1  0
 14 15  1  0
 15 16  2  0
 16 17  1  0
 16 18  1  0
 18 19  2  0
M  END
$$$$
