
     RDKit          3D

 19 20  0  0  0  0  0  0  0  0999 V2000
    5.3049  -15.4001    7.0124 C   0  0  0  0  0  0  0  0  0  0  0  0
    6.5355  -15.0170    7.5102 C   0  0  0  0  0  0  0  0  0  0  0  0
    7.1930  -15.8372    8.3685 C   0  0  0  0  0  0  0  0  0  0  0  0
    8.4473  -15.4309    8.8666 O   0  0  0  0  0  0  0  0  0  0  0  0
    6.6371  -17.0309    8.7336 C   0  0  0  0  0  0  0  0  0  0  0  0
    5.3871  -17.4034    8.2185 C   0  0  0  0  0  0  0  0  0  0  0  0
    4.7052  -16.5912    7.3502 C   0  0  0  0  0  0  0  0  0  0  0  0
    3.3948  -16.9876    6.8275 C   0  0  1  0  0  0  0  0  0  0  0  0
    2.2176  -16.2211    7.3496 C   0  0  1  0  0  0  0  0  0  0  0  0
    1.8491  -14.8249    6.2718 Cl  0  0  0  0  0  0  0  0  0  0  0  0
    0.7363  -17.1174    7.5460 Cl  0  0  0  0  0  0  0  0  0  0  0  0
    2.7531  -15.4717    8.8986 Cl  0  0  0  0  0  0  0  0  0  0  0  0
    3.3873  -17.2096    5.3720 C   0  0  0  0  0  0  0  0  0  0  0  0
    3.6452  -16.2401    4.4224 C   0  0  0  0  0  0  0  0  0  0  0  0
    3.6263  -16.5086    3.0669 C   0  0  0  0  0  0  0  0  0  0  0  0
    3.3480  -17.7617    2.5989 C   0  0  0  0  0  0  0  0  0  0  0  0
    3.3339  -18.0124    1.2246 O   0  0  0  0  0  0  0  0  0  0  0  0
    3.0848  -18.7589    3.5197 C   0  0  0  0  0  0  0  0  0  0  0  0
    3.1092  -18.4668    4.8727 C   0  0  0  0  0  0  0  0  0  0  0  0
  1  2  2  0
  1  7  1  0
  2  3  1  0
  3  4  1  0
  3  5  2  0
  5  6  1  0
  6  7  2  0
  8  7  1  6
  8  9  1  0
  8 13  1  0
  9 10  1  6
  9 11  1  0
  9 12  1  0
 13 14  2  0
 13 19  1  0
 14 15  1  0
 15 16  2  0
 16 17  1  0
 16 18  1  0
 18 19  2  0
M  END
$$$$
