
     RDKit          3D

 25 28  0  0  0  0  0  0  0  0999 V2000
   12.3312    5.9544  -14.6185 C   0  0  0  0  0  0  0  0  0  0  0  0
   13.2524    5.0166  -14.1727 C   0  0  0  0  0  0  0  0  0  0  0  0
   14.2582    4.5773  -14.9959 C   0  0  0  0  0  0  0  0  0  0  0  0
   14.3907    5.0461  -16.2842 C   0  0  0  0  0  0  0  0  0  0  0  0
   13.4922    5.9750  -16.7516 C   0  0  0  0  0  0  0  0  0  0  0  0
   12.4898    6.4117  -15.9282 C   0  0  0  0  0  0  0  0  0  0  0  0
   12.0502    5.0314  -12.0442 C   0  0  0  0  0  0  0  0  0  0  0  0
   13.0805    4.5668  -12.8552 C   0  0  0  0  0  0  0  0  0  0  0  0
   11.3559    6.3892  -13.8400 N   0  0  0  0  0  0  0  0  0  0  0  0
   11.1793    5.9654  -12.5730 C   0  0  0  0  0  0  0  0  0  0  0  0
   12.8464    3.6234  -10.3046 C   0  0  0  0  0  0  0  0  0  0  0  0
   13.8213    3.1980  -11.1044 N   0  0  0  0  0  0  0  0  0  0  0  0
   13.9741    3.6392  -12.3754 C   0  0  0  0  0  0  0  0  0  0  0  0
   11.9303    4.5569  -10.7569 C   0  0  0  0  0  0  0  0  0  0  0  0
   10.0966    6.4561  -11.8038 N   0  0  0  0  0  0  0  0  0  0  0  0
    9.1520    7.4080  -12.2703 C   0  0  0  0  0  0  0  0  0  0  0  0
    8.8335    7.6278  -13.5874 C   0  0  0  0  0  0  0  0  0  0  0  0
    7.8777    8.5745  -13.9777 C   0  0  0  0  0  0  0  0  0  0  0  0
    7.2163    9.3281  -13.0359 C   0  0  0  0  0  0  0  0  0  0  0  0
    7.5188    9.1254  -11.7157 C   0  0  0  0  0  0  0  0  0  0  0  0
    8.4560    8.1966  -11.3393 C   0  0  0  0  0  0  0  0  0  0  0  0
    7.5110    8.8117  -15.6710 Cl  0  0  0  0  0  0  0  0  0  0  0  0
   13.5872    6.5088  -18.1236 C   0  0  0  0  0  0  0  0  0  0  0  0
   14.7045    6.2997  -18.9117 O   0  0  0  0  0  0  0  0  0  0  0  0
   12.6339    7.1775  -18.6131 O   0  0  0  0  0  0  0  0  0  0  0  0
  2  1  1  0
  1  6  2  0
  9  1  1  0
  2  3  2  0
  8  2  1  0
  3  4  1  0
  4  5  2  0
  6  5  1  0
  5 23  1  0
  7  8  2  0
  7 10  1  0
 14  7  1  0
  8 13  1  0
 10  9  2  0
 10 15  1  0
 11 12  1  0
 11 14  2  0
 12 13  2  0
 15 16  1  0
 16 17  2  0
 16 21  1  0
 17 18  1  0
 18 19  2  0
 18 22  1  0
 19 20  1  0
 20 21  2  0
 23 24  1  0
 23 25  2  0
M  END
$$$$
