
     RDKit          3D

 25 28  0  0  0  0  0  0  0  0999 V2000
   12.4634    5.9512  -14.6685 C   0  0  0  0  0  0  0  0  0  0  0  0
   13.4241    5.0379  -14.2566 C   0  0  0  0  0  0  0  0  0  0  0  0
   14.4270    4.6457  -15.1068 C   0  0  0  0  0  0  0  0  0  0  0  0
   14.5174    5.1390  -16.3896 C   0  0  0  0  0  0  0  0  0  0  0  0
   13.5793    6.0445  -16.8236 C   0  0  0  0  0  0  0  0  0  0  0  0
   12.5799    6.4342  -15.9734 C   0  0  0  0  0  0  0  0  0  0  0  0
   12.2658    4.9786  -12.1047 C   0  0  0  0  0  0  0  0  0  0  0  0
   13.2943    4.5617  -12.9436 C   0  0  0  0  0  0  0  0  0  0  0  0
   11.4902    6.3407  -13.8636 N   0  0  0  0  0  0  0  0  0  0  0  0
   11.3538    5.8912  -12.6005 C   0  0  0  0  0  0  0  0  0  0  0  0
   13.1438    3.5708  -10.4047 C   0  0  0  0  0  0  0  0  0  0  0  0
   14.1157    3.1910  -11.2307 N   0  0  0  0  0  0  0  0  0  0  0  0
   14.2277    3.6572  -12.4970 C   0  0  0  0  0  0  0  0  0  0  0  0
   12.1881    4.4801  -10.8233 C   0  0  0  0  0  0  0  0  0  0  0  0
   10.2713    6.3330  -11.8020 N   0  0  0  0  0  0  0  0  0  0  0  0
    9.3546    7.3459  -12.1888 C   0  0  0  0  0  0  0  0  0  0  0  0
    8.7897    8.2679  -11.3430 C   0  0  0  0  0  0  0  0  0  0  0  0
    7.9026    9.2529  -11.7955 C   0  0  0  0  0  0  0  0  0  0  0  0
    7.5630    9.3286  -13.1264 C   0  0  0  0  0  0  0  0  0  0  0  0
    8.1148    8.4183  -13.9880 C   0  0  0  0  0  0  0  0  0  0  0  0
    8.9832    7.4556  -13.5390 C   0  0  0  0  0  0  0  0  0  0  0  0
    7.2135   10.4028  -10.6726 Cl  0  0  0  0  0  0  0  0  0  0  0  0
   13.6284    6.6028  -18.1882 C   0  0  0  0  0  0  0  0  0  0  0  0
   14.7268    6.4248  -19.0099 O   0  0  0  0  0  0  0  0  0  0  0  0
   12.6519    7.2645  -18.6401 O   0  0  0  0  0  0  0  0  0  0  0  0
  2  1  1  0
  1  6  2  0
  9  1  1  0
  2  3  2  0
  8  2  1  0
  3  4  1  0
  4  5  2  0
  6  5  1  0
  5 23  1  0
  7  8  2  0
  7 10  1  0
 14  7  1  0
  8 13  1  0
 10  9  2  0
 10 15  1  0
 11 12  1  0
 11 14  2  0
 12 13  2  0
 15 16  1  0
 16 17  2  0
 16 21  1  0
 17 18  1  0
 18 19  2  0
 18 22  1  0
 19 20  1  0
 20 21  2  0
 23 24  1  0
 23 25  2  0
M  END
$$$$
