
     RDKit          3D

 25 28  0  0  0  0  0  0  0  0999 V2000
   12.4006    6.1855  -14.4789 C   0  0  0  0  0  0  0  0  0  0  0  0
   13.3384    5.2688  -14.0238 C   0  0  0  0  0  0  0  0  0  0  0  0
   14.3518    4.8391  -14.8426 C   0  0  0  0  0  0  0  0  0  0  0  0
   14.4758    5.2969  -16.1358 C   0  0  0  0  0  0  0  0  0  0  0  0
   13.5609    6.2049  -16.6124 C   0  0  0  0  0  0  0  0  0  0  0  0
   12.5510    6.6321  -15.7933 C   0  0  0  0  0  0  0  0  0  0  0  0
   12.1363    5.2841  -11.8952 C   0  0  0  0  0  0  0  0  0  0  0  0
   13.1747    4.8296  -12.7017 C   0  0  0  0  0  0  0  0  0  0  0  0
   11.4178    6.6109  -13.7046 N   0  0  0  0  0  0  0  0  0  0  0  0
   11.2489    6.1970  -12.4333 C   0  0  0  0  0  0  0  0  0  0  0  0
   12.9576    3.9084  -10.1415 C   0  0  0  0  0  0  0  0  0  0  0  0
   13.9398    3.4921  -10.9372 N   0  0  0  0  0  0  0  0  0  0  0  0
   14.0846    3.9230  -12.2126 C   0  0  0  0  0  0  0  0  0  0  0  0
   12.0250    4.8208  -10.6031 C   0  0  0  0  0  0  0  0  0  0  0  0
   10.1577    6.6762  -11.6688 N   0  0  0  0  0  0  0  0  0  0  0  0
    9.1885    7.5958  -12.1495 C   0  0  0  0  0  0  0  0  0  0  0  0
    8.7806    7.7061  -13.4556 C   0  0  0  0  0  0  0  0  0  0  0  0
    7.8054    8.6271  -13.8592 C   0  0  0  0  0  0  0  0  0  0  0  0
    7.2151    9.4658  -12.9424 C   0  0  0  0  0  0  0  0  0  0  0  0
    7.6073    9.3729  -11.6336 C   0  0  0  0  0  0  0  0  0  0  0  0
    8.5631    8.4688  -11.2440 C   0  0  0  0  0  0  0  0  0  0  0  0
    7.3236    8.7233  -15.5375 Cl  0  0  0  0  0  0  0  0  0  0  0  0
   13.6463    6.7261  -17.9898 C   0  0  0  0  0  0  0  0  0  0  0  0
   12.6189    7.4579  -18.5576 O   0  0  0  0  0  0  0  0  0  0  0  0
   14.6765    6.5112  -18.6883 O   0  0  0  0  0  0  0  0  0  0  0  0
  2  1  1  0
  1  6  2  0
  9  1  1  0
  2  3  2  0
  8  2  1  0
  3  4  1  0
  4  5  2  0
  6  5  1  0
  5 23  1  0
  7  8  2  0
  7 10  1  0
 14  7  1  0
  8 13  1  0
 10  9  2  0
 10 15  1  0
 11 12  1  0
 11 14  2  0
 12 13  2  0
 15 16  1  0
 16 17  2  0
 16 21  1  0
 17 18  1  0
 18 19  2  0
 18 22  1  0
 19 20  1  0
 20 21  2  0
 23 24  1  0
 23 25  2  0
M  END
$$$$
