
     RDKit          3D

 25 28  0  0  0  0  0  0  0  0999 V2000
   12.6169    6.0377  -14.6557 C   0  0  0  0  0  0  0  0  0  0  0  0
   13.6243    5.1710  -14.2549 C   0  0  0  0  0  0  0  0  0  0  0  0
   14.6264    4.8141  -15.1213 C   0  0  0  0  0  0  0  0  0  0  0  0
   14.6701    5.2979  -16.4102 C   0  0  0  0  0  0  0  0  0  0  0  0
   13.6851    6.1576  -16.8336 C   0  0  0  0  0  0  0  0  0  0  0  0
   12.6866    6.5122  -15.9671 C   0  0  0  0  0  0  0  0  0  0  0  0
   12.5122    5.0833  -12.0797 C   0  0  0  0  0  0  0  0  0  0  0  0
   13.5411    4.7029  -12.9352 C   0  0  0  0  0  0  0  0  0  0  0  0
   11.6437    6.3927  -13.8352 N   0  0  0  0  0  0  0  0  0  0  0  0
   11.5518    5.9505  -12.5655 C   0  0  0  0  0  0  0  0  0  0  0  0
   13.4838    3.7320  -10.3848 C   0  0  0  0  0  0  0  0  0  0  0  0
   14.4549    3.3864  -11.2266 N   0  0  0  0  0  0  0  0  0  0  0  0
   14.5217    3.8443  -12.4991 C   0  0  0  0  0  0  0  0  0  0  0  0
   12.4815    4.5948  -10.7925 C   0  0  0  0  0  0  0  0  0  0  0  0
   10.4669    6.3530  -11.7495 N   0  0  0  0  0  0  0  0  0  0  0  0
    9.4479    7.2517  -12.1616 C   0  0  0  0  0  0  0  0  0  0  0  0
    8.4640    7.7594  -11.3501 C   0  0  0  0  0  0  0  0  0  0  0  0
    7.4965    8.6571  -11.8196 C   0  0  0  0  0  0  0  0  0  0  0  0
    7.5021    9.0655  -13.1332 C   0  0  0  0  0  0  0  0  0  0  0  0
    8.4749    8.5711  -13.9607 C   0  0  0  0  0  0  0  0  0  0  0  0
    9.4199    7.6920  -13.4952 C   0  0  0  0  0  0  0  0  0  0  0  0
    6.2663    9.2727  -10.7400 Cl  0  0  0  0  0  0  0  0  0  0  0  0
   13.6831    6.7037  -18.2040 C   0  0  0  0  0  0  0  0  0  0  0  0
   12.5905    7.3780  -18.7187 O   0  0  0  0  0  0  0  0  0  0  0  0
   14.6961    6.5643  -18.9456 O   0  0  0  0  0  0  0  0  0  0  0  0
  2  1  1  0
  1  6  2  0
  9  1  1  0
  2  3  2  0
  8  2  1  0
  3  4  1  0
  4  5  2  0
  6  5  1  0
  5 23  1  0
  7  8  2  0
  7 10  1  0
 14  7  1  0
  8 13  1  0
 10  9  2  0
 10 15  1  0
 11 12  1  0
 11 14  2  0
 12 13  2  0
 15 16  1  0
 16 17  2  0
 16 21  1  0
 17 18  1  0
 18 19  2  0
 18 22  1  0
 19 20  1  0
 20 21  2  0
 23 24  1  0
 23 25  2  0
M  END
$$$$
