
     RDKit          3D

 25 28  0  0  0  0  0  0  0  0999 V2000
   12.6045    5.9064  -14.5838 C   0  0  0  0  0  0  0  0  0  0  0  0
   13.5574    4.9901  -14.1607 C   0  0  0  0  0  0  0  0  0  0  0  0
   14.5664    4.5912  -15.0005 C   0  0  0  0  0  0  0  0  0  0  0  0
   14.6708    5.0806  -16.2838 C   0  0  0  0  0  0  0  0  0  0  0  0
   13.7405    5.9891  -16.7288 C   0  0  0  0  0  0  0  0  0  0  0  0
   12.7352    6.3854  -15.8889 C   0  0  0  0  0  0  0  0  0  0  0  0
   12.3791    4.9417  -12.0194 C   0  0  0  0  0  0  0  0  0  0  0  0
   13.4134    4.5181  -12.8476 C   0  0  0  0  0  0  0  0  0  0  0  0
   11.6257    6.3023  -13.7890 N   0  0  0  0  0  0  0  0  0  0  0  0
   11.4757    5.8568  -12.5260 C   0  0  0  0  0  0  0  0  0  0  0  0
   13.2353    3.5347  -10.3077 C   0  0  0  0  0  0  0  0  0  0  0  0
   14.2131    3.1484  -11.1236 N   0  0  0  0  0  0  0  0  0  0  0  0
   14.3388    3.6107  -12.3901 C   0  0  0  0  0  0  0  0  0  0  0  0
   12.2875    4.4469  -10.7374 C   0  0  0  0  0  0  0  0  0  0  0  0
   10.3878    6.3055  -11.7387 N   0  0  0  0  0  0  0  0  0  0  0  0
    9.4240    7.2530  -12.1739 C   0  0  0  0  0  0  0  0  0  0  0  0
    8.9634    7.3802  -13.4608 C   0  0  0  0  0  0  0  0  0  0  0  0
    7.9971    8.3290  -13.8188 C   0  0  0  0  0  0  0  0  0  0  0  0
    7.4697    9.1790  -12.8745 C   0  0  0  0  0  0  0  0  0  0  0  0
    7.9153    9.0696  -11.5842 C   0  0  0  0  0  0  0  0  0  0  0  0
    8.8621    8.1383  -11.2393 C   0  0  0  0  0  0  0  0  0  0  0  0
    7.4462    8.4458  -15.4744 Cl  0  0  0  0  0  0  0  0  0  0  0  0
   13.8047    6.5434  -18.0944 C   0  0  0  0  0  0  0  0  0  0  0  0
   12.7695    7.2899  -18.6278 O   0  0  0  0  0  0  0  0  0  0  0  0
   14.8233    6.3443  -18.8144 O   0  0  0  0  0  0  0  0  0  0  0  0
  2  1  1  0
  1  6  2  0
  9  1  1  0
  2  3  2  0
  8  2  1  0
  3  4  1  0
  4  5  2  0
  6  5  1  0
  5 23  1  0
  7  8  2  0
  7 10  1  0
 14  7  1  0
  8 13  1  0
 10  9  2  0
 10 15  1  0
 11 12  1  0
 11 14  2  0
 12 13  2  0
 15 16  1  0
 16 17  2  0
 16 21  1  0
 17 18  1  0
 18 19  2  0
 18 22  1  0
 19 20  1  0
 20 21  2  0
 23 24  1  0
 23 25  2  0
M  END
$$$$
