
     RDKit          3D

 25 28  0  0  0  0  0  0  0  0999 V2000
   12.4986    6.2236  -14.5989 C   0  0  0  0  0  0  0  0  0  0  0  0
   13.4794    5.3444  -14.1609 C   0  0  0  0  0  0  0  0  0  0  0  0
   14.5107    4.9776  -14.9881 C   0  0  0  0  0  0  0  0  0  0  0  0
   14.6107    5.4636  -16.2730 C   0  0  0  0  0  0  0  0  0  0  0  0
   13.6531    6.3356  -16.7327 C   0  0  0  0  0  0  0  0  0  0  0  0
   12.6255    6.7000  -15.9053 C   0  0  0  0  0  0  0  0  0  0  0  0
   12.2815    5.2651  -12.0314 C   0  0  0  0  0  0  0  0  0  0  0  0
   13.3389    4.8745  -12.8467 C   0  0  0  0  0  0  0  0  0  0  0  0
   11.4981    6.5882  -13.8164 N   0  0  0  0  0  0  0  0  0  0  0  0
   11.3511    6.1444  -12.5525 C   0  0  0  0  0  0  0  0  0  0  0  0
   13.1699    3.8990  -10.3031 C   0  0  0  0  0  0  0  0  0  0  0  0
   14.1693    3.5438  -11.1068 N   0  0  0  0  0  0  0  0  0  0  0  0
   14.2915    4.0036  -12.3746 C   0  0  0  0  0  0  0  0  0  0  0  0
   12.1944    4.7742  -10.7476 C   0  0  0  0  0  0  0  0  0  0  0  0
   10.2396    6.5578  -11.7788 N   0  0  0  0  0  0  0  0  0  0  0  0
    9.2532    7.4764  -12.2250 C   0  0  0  0  0  0  0  0  0  0  0  0
    8.8123    7.5984  -13.5193 C   0  0  0  0  0  0  0  0  0  0  0  0
    7.8218    8.5175  -13.8885 C   0  0  0  0  0  0  0  0  0  0  0  0
    7.2493    9.3422  -12.9481 C   0  0  0  0  0  0  0  0  0  0  0  0
    7.6744    9.2375  -11.6505 C   0  0  0  0  0  0  0  0  0  0  0  0
    8.6451    8.3354  -11.2947 C   0  0  0  0  0  0  0  0  0  0  0  0
    7.2978    8.6289  -15.5531 Cl  0  0  0  0  0  0  0  0  0  0  0  0
   13.7115    6.8846  -18.1007 C   0  0  0  0  0  0  0  0  0  0  0  0
   12.6595    7.5987  -18.6454 O   0  0  0  0  0  0  0  0  0  0  0  0
   14.7405    6.7107  -18.8124 O   0  0  0  0  0  0  0  0  0  0  0  0
  2  1  1  0
  1  6  2  0
  9  1  1  0
  2  3  2  0
  8  2  1  0
  3  4  1  0
  4  5  2  0
  6  5  1  0
  5 23  1  0
  7  8  2  0
  7 10  1  0
 14  7  1  0
  8 13  1  0
 10  9  2  0
 10 15  1  0
 11 12  1  0
 11 14  2  0
 12 13  2  0
 15 16  1  0
 16 17  2  0
 16 21  1  0
 17 18  1  0
 18 19  2  0
 18 22  1  0
 19 20  1  0
 20 21  2  0
 23 24  1  0
 23 25  2  0
M  END
$$$$
