
     RDKit          3D

 25 28  0  0  0  0  0  0  0  0999 V2000
   12.7711    6.0589  -14.5845 C   0  0  0  0  0  0  0  0  0  0  0  0
   13.7920    5.1880  -14.1811 C   0  0  0  0  0  0  0  0  0  0  0  0
   14.7895    4.8320  -15.0660 C   0  0  0  0  0  0  0  0  0  0  0  0
   14.7613    5.3458  -16.3417 C   0  0  0  0  0  0  0  0  0  0  0  0
   13.7514    6.2174  -16.7660 C   0  0  0  0  0  0  0  0  0  0  0  0
   12.7719    6.5546  -15.8668 C   0  0  0  0  0  0  0  0  0  0  0  0
   12.7674    5.0971  -12.0406 C   0  0  0  0  0  0  0  0  0  0  0  0
   13.8019    4.6932  -12.8959 C   0  0  0  0  0  0  0  0  0  0  0  0
   11.8087    6.4093  -13.7191 N   0  0  0  0  0  0  0  0  0  0  0  0
   11.7654    5.9545  -12.4403 C   0  0  0  0  0  0  0  0  0  0  0  0
   13.7228    3.7841  -10.3182 C   0  0  0  0  0  0  0  0  0  0  0  0
   14.6992    3.4168  -11.1594 N   0  0  0  0  0  0  0  0  0  0  0  0
   14.7684    3.8422  -12.4270 C   0  0  0  0  0  0  0  0  0  0  0  0
   12.7334    4.6353  -10.7457 C   0  0  0  0  0  0  0  0  0  0  0  0
   10.7249    6.3581  -11.5617 N   0  0  0  0  0  0  0  0  0  0  0  0
    9.6580    7.1954  -11.9164 C   0  0  0  0  0  0  0  0  0  0  0  0
    9.7900    7.9757  -13.0540 C   0  0  0  0  0  0  0  0  0  0  0  0
    8.7512    8.7976  -13.4312 C   0  0  0  0  0  0  0  0  0  0  0  0
    7.5816    8.8562  -12.6918 C   0  0  0  0  0  0  0  0  0  0  0  0
    7.4446    8.0765  -11.5488 C   0  0  0  0  0  0  0  0  0  0  0  0
    8.4986    7.2506  -11.1783 C   0  0  0  0  0  0  0  0  0  0  0  0
    8.9654    9.7647  -14.8996 Cl  0  0  0  0  0  0  0  0  0  0  0  0
   13.7353    6.7598  -18.1110 C   0  0  0  0  0  0  0  0  0  0  0  0
   12.6720    7.4484  -18.5856 O   0  0  0  0  0  0  0  0  0  0  0  0
   14.7815    6.5531  -18.8219 O   0  0  0  0  0  0  0  0  0  0  0  0
  2  1  1  0
  1  6  2  0
  9  1  1  0
  2  3  2  0
  8  2  1  0
  3  4  1  0
  4  5  2  0
  6  5  1  0
  5 23  1  0
  7  8  2  0
  7 10  1  0
 14  7  1  0
  8 13  1  0
 10  9  2  0
 10 15  1  0
 11 12  1  0
 11 14  2  0
 12 13  2  0
 15 16  1  0
 16 17  2  0
 16 21  1  0
 17 18  1  0
 18 19  2  0
 18 22  1  0
 19 20  1  0
 20 21  2  0
 23 24  1  0
 23 25  2  0
M  END
$$$$
