
     RDKit          3D

 25 28  0  0  0  0  0  0  0  0999 V2000
   12.5293    6.0016  -14.5658 C   0  0  0  0  0  0  0  0  0  0  0  0
   13.4880    5.1039  -14.1166 C   0  0  0  0  0  0  0  0  0  0  0  0
   14.5082    4.6992  -14.9397 C   0  0  0  0  0  0  0  0  0  0  0  0
   14.6188    5.1643  -16.2314 C   0  0  0  0  0  0  0  0  0  0  0  0
   13.6831    6.0539  -16.7023 C   0  0  0  0  0  0  0  0  0  0  0  0
   12.6664    6.4562  -15.8789 C   0  0  0  0  0  0  0  0  0  0  0  0
   12.2916    5.0853  -11.9848 C   0  0  0  0  0  0  0  0  0  0  0  0
   13.3374    4.6563  -12.7957 C   0  0  0  0  0  0  0  0  0  0  0  0
   11.5396    6.4028  -13.7874 N   0  0  0  0  0  0  0  0  0  0  0  0
   11.3832    5.9807  -12.5172 C   0  0  0  0  0  0  0  0  0  0  0  0
   13.1473    3.7214  -10.2383 C   0  0  0  0  0  0  0  0  0  0  0  0
   14.1361    3.3295  -11.0381 N   0  0  0  0  0  0  0  0  0  0  0  0
   14.2681    3.7680  -12.3124 C   0  0  0  0  0  0  0  0  0  0  0  0
   12.1939    4.6150  -10.6941 C   0  0  0  0  0  0  0  0  0  0  0  0
   10.2839    6.4333  -11.7481 N   0  0  0  0  0  0  0  0  0  0  0  0
    9.2946    7.3347  -12.2222 C   0  0  0  0  0  0  0  0  0  0  0  0
    8.9945    7.5582  -13.5431 C   0  0  0  0  0  0  0  0  0  0  0  0
    7.9925    8.4523  -13.9414 C   0  0  0  0  0  0  0  0  0  0  0  0
    7.2643    9.1476  -13.0040 C   0  0  0  0  0  0  0  0  0  0  0  0
    7.5473    8.9402  -11.6803 C   0  0  0  0  0  0  0  0  0  0  0  0
    8.5300    8.0631  -11.2960 C   0  0  0  0  0  0  0  0  0  0  0  0
    7.6522    8.6969  -15.6391 Cl  0  0  0  0  0  0  0  0  0  0  0  0
   13.7534    6.5819  -18.0780 C   0  0  0  0  0  0  0  0  0  0  0  0
   12.7407    7.3564  -18.6145 O   0  0  0  0  0  0  0  0  0  0  0  0
   14.7567    6.3333  -18.8040 O   0  0  0  0  0  0  0  0  0  0  0  0
  2  1  1  0
  1  6  2  0
  9  1  1  0
  2  3  2  0
  8  2  1  0
  3  4  1  0
  4  5  2  0
  6  5  1  0
  5 23  1  0
  7  8  2  0
  7 10  1  0
 14  7  1  0
  8 13  1  0
 10  9  2  0
 10 15  1  0
 11 12  1  0
 11 14  2  0
 12 13  2  0
 15 16  1  0
 16 17  2  0
 16 21  1  0
 17 18  1  0
 18 19  2  0
 18 22  1  0
 19 20  1  0
 20 21  2  0
 23 24  1  0
 23 25  2  0
M  END
$$$$
