
     RDKit          3D

 25 28  0  0  0  0  0  0  0  0999 V2000
   12.5026    5.8703  -14.6216 C   0  0  0  0  0  0  0  0  0  0  0  0
   13.4220    4.9317  -14.1342 C   0  0  0  0  0  0  0  0  0  0  0  0
   14.4486    4.4837  -14.9404 C   0  0  0  0  0  0  0  0  0  0  0  0
   14.5504    4.9738  -16.2217 C   0  0  0  0  0  0  0  0  0  0  0  0
   13.6435    5.9118  -16.7291 C   0  0  0  0  0  0  0  0  0  0  0  0
   12.6323    6.3400  -15.9071 C   0  0  0  0  0  0  0  0  0  0  0  0
   12.2451    4.9603  -12.0717 C   0  0  0  0  0  0  0  0  0  0  0  0
   13.3028    4.4622  -12.8450 C   0  0  0  0  0  0  0  0  0  0  0  0
   11.5117    6.3097  -13.8323 N   0  0  0  0  0  0  0  0  0  0  0  0
   11.3433    5.8839  -12.5538 C   0  0  0  0  0  0  0  0  0  0  0  0
   12.9720    3.6112  -10.2675 C   0  0  0  0  0  0  0  0  0  0  0  0
   13.9738    3.1543  -11.0315 N   0  0  0  0  0  0  0  0  0  0  0  0
   14.1649    3.5490  -12.2965 C   0  0  0  0  0  0  0  0  0  0  0  0
   12.0842    4.5273  -10.7764 C   0  0  0  0  0  0  0  0  0  0  0  0
   10.2780    6.3826  -11.7576 N   0  0  0  0  0  0  0  0  0  0  0  0
    9.4413    7.4484  -12.1173 C   0  0  0  0  0  0  0  0  0  0  0  0
    8.7892    7.3839  -13.3384 C   0  0  0  0  0  0  0  0  0  0  0  0
    7.9518    8.4123  -13.7098 C   0  0  0  0  0  0  0  0  0  0  0  0
    7.7540    9.5065  -12.8842 C   0  0  0  0  0  0  0  0  0  0  0  0
    8.4069    9.5768  -11.6586 C   0  0  0  0  0  0  0  0  0  0  0  0
    9.2486    8.5334  -11.2941 C   0  0  0  0  0  0  0  0  0  0  0  0
    7.1327    8.2754  -15.2744 Cl  0  0  0  0  0  0  0  0  0  0  0  0
   13.7644    6.4281  -18.0791 C   0  0  0  0  0  0  0  0  0  0  0  0
   12.7907    7.1808  -18.6406 O   0  0  0  0  0  0  0  0  0  0  0  0
   14.8420    6.1344  -18.7076 O   0  0  0  0  0  0  0  0  0  0  0  0
  2  1  1  0
  1  6  2  0
  9  1  1  0
  2  3  2  0
  8  2  1  0
  3  4  1  0
  4  5  2  0
  6  5  1  0
  5 23  1  0
  7  8  2  0
  7 10  1  0
 14  7  1  0
  8 13  1  0
 10  9  2  0
 10 15  1  0
 11 12  1  0
 11 14  2  0
 12 13  2  0
 15 16  1  0
 16 17  2  0
 16 21  1  0
 17 18  1  0
 18 19  2  0
 18 22  1  0
 19 20  1  0
 20 21  2  0
 23 24  1  0
 23 25  2  0
M  END
$$$$
