
     RDKit          3D

 25 28  0  0  0  0  0  0  0  0999 V2000
   12.6308    6.1436  -14.5161 C   0  0  0  0  0  0  0  0  0  0  0  0
   13.6506    5.2905  -14.1172 C   0  0  0  0  0  0  0  0  0  0  0  0
   14.6640    4.9594  -14.9807 C   0  0  0  0  0  0  0  0  0  0  0  0
   14.7074    5.4565  -16.2645 C   0  0  0  0  0  0  0  0  0  0  0  0
   13.7103    6.3032  -16.6858 C   0  0  0  0  0  0  0  0  0  0  0  0
   12.7005    6.6321  -15.8223 C   0  0  0  0  0  0  0  0  0  0  0  0
   12.5266    5.1624  -11.9502 C   0  0  0  0  0  0  0  0  0  0  0  0
   13.5672    4.8082  -12.8027 C   0  0  0  0  0  0  0  0  0  0  0  0
   11.6466    6.4738  -13.6984 N   0  0  0  0  0  0  0  0  0  0  0  0
   11.5544    6.0176  -12.4337 C   0  0  0  0  0  0  0  0  0  0  0  0
   13.5108    3.8115  -10.2623 C   0  0  0  0  0  0  0  0  0  0  0  0
   14.4930    3.4909  -11.1012 N   0  0  0  0  0  0  0  0  0  0  0  0
   14.5597    3.9623  -12.3687 C   0  0  0  0  0  0  0  0  0  0  0  0
   12.4963    4.6608  -10.6679 C   0  0  0  0  0  0  0  0  0  0  0  0
   10.4577    6.3934  -11.6207 N   0  0  0  0  0  0  0  0  0  0  0  0
    9.4689    7.3388  -12.0006 C   0  0  0  0  0  0  0  0  0  0  0  0
    8.4459    7.7805  -11.1987 C   0  0  0  0  0  0  0  0  0  0  0  0
    7.5116    8.7295  -11.6330 C   0  0  0  0  0  0  0  0  0  0  0  0
    7.5913    9.2584  -12.9004 C   0  0  0  0  0  0  0  0  0  0  0  0
    8.6041    8.8317  -13.7174 C   0  0  0  0  0  0  0  0  0  0  0  0
    9.5163    7.9018  -13.2866 C   0  0  0  0  0  0  0  0  0  0  0  0
    6.2289    9.2566  -10.5677 Cl  0  0  0  0  0  0  0  0  0  0  0  0
   13.7074    6.8626  -18.0509 C   0  0  0  0  0  0  0  0  0  0  0  0
   12.6226    7.5602  -18.5508 O   0  0  0  0  0  0  0  0  0  0  0  0
   14.7124    6.7133  -18.8014 O   0  0  0  0  0  0  0  0  0  0  0  0
  2  1  1  0
  1  6  2  0
  9  1  1  0
  2  3  2  0
  8  2  1  0
  3  4  1  0
  4  5  2  0
  6  5  1  0
  5 23  1  0
  7  8  2  0
  7 10  1  0
 14  7  1  0
  8 13  1  0
 10  9  2  0
 10 15  1  0
 11 12  1  0
 11 14  2  0
 12 13  2  0
 15 16  1  0
 16 17  2  0
 16 21  1  0
 17 18  1  0
 18 19  2  0
 18 22  1  0
 19 20  1  0
 20 21  2  0
 23 24  1  0
 23 25  2  0
M  END
$$$$
