
     RDKit          3D

 25 28  0  0  0  0  0  0  0  0999 V2000
   12.5147    5.7947  -14.6819 C   0  0  0  0  0  0  0  0  0  0  0  0
   13.4799    4.8601  -14.2838 C   0  0  0  0  0  0  0  0  0  0  0  0
   14.4332    4.4231  -15.1811 C   0  0  0  0  0  0  0  0  0  0  0  0
   14.4167    4.9201  -16.4636 C   0  0  0  0  0  0  0  0  0  0  0  0
   13.4621    5.8543  -16.8828 C   0  0  0  0  0  0  0  0  0  0  0  0
   12.5257    6.2715  -15.9713 C   0  0  0  0  0  0  0  0  0  0  0  0
   12.4922    4.8705  -12.1242 C   0  0  0  0  0  0  0  0  0  0  0  0
   13.4797    4.3835  -12.9917 C   0  0  0  0  0  0  0  0  0  0  0  0
   11.5956    6.2234  -13.8048 N   0  0  0  0  0  0  0  0  0  0  0  0
   11.5450    5.7903  -12.5187 C   0  0  0  0  0  0  0  0  0  0  0  0
   13.3863    3.5177  -10.3997 C   0  0  0  0  0  0  0  0  0  0  0  0
   14.3186    3.0714  -11.2527 N   0  0  0  0  0  0  0  0  0  0  0  0
   14.3932    3.4736  -12.5275 C   0  0  0  0  0  0  0  0  0  0  0  0
   12.4507    4.4301  -10.8221 C   0  0  0  0  0  0  0  0  0  0  0  0
   10.5520    6.2777  -11.6277 N   0  0  0  0  0  0  0  0  0  0  0  0
    9.4828    7.1058  -11.9968 C   0  0  0  0  0  0  0  0  0  0  0  0
    9.5776    7.8020  -13.1913 C   0  0  0  0  0  0  0  0  0  0  0  0
    8.5354    8.6127  -13.5830 C   0  0  0  0  0  0  0  0  0  0  0  0
    7.3989    8.7427  -12.8023 C   0  0  0  0  0  0  0  0  0  0  0  0
    7.2992    8.0476  -11.6023 C   0  0  0  0  0  0  0  0  0  0  0  0
    8.3563    7.2322  -11.2177 C   0  0  0  0  0  0  0  0  0  0  0  0
    8.7010    9.4705  -15.1238 Cl  0  0  0  0  0  0  0  0  0  0  0  0
   13.4584    6.3780  -18.2353 C   0  0  0  0  0  0  0  0  0  0  0  0
   12.4131    7.0881  -18.7182 O   0  0  0  0  0  0  0  0  0  0  0  0
   14.4975    6.1333  -18.9445 O   0  0  0  0  0  0  0  0  0  0  0  0
  2  1  1  0
  1  6  2  0
  9  1  1  0
  2  3  2  0
  8  2  1  0
  3  4  1  0
  4  5  2  0
  6  5  1  0
  5 23  1  0
  7  8  2  0
  7 10  1  0
 14  7  1  0
  8 13  1  0
 10  9  2  0
 10 15  1  0
 11 12  1  0
 11 14  2  0
 12 13  2  0
 15 16  1  0
 16 17  2  0
 16 21  1  0
 17 18  1  0
 18 19  2  0
 18 22  1  0
 19 20  1  0
 20 21  2  0
 23 24  1  0
 23 25  2  0
M  END
$$$$
