
     RDKit          3D

 25 28  0  0  0  0  0  0  0  0999 V2000
   12.7445    5.9911  -14.5175 C   0  0  0  0  0  0  0  0  0  0  0  0
   13.6969    5.0648  -14.0721 C   0  0  0  0  0  0  0  0  0  0  0  0
   14.6806    4.6155  -14.9296 C   0  0  0  0  0  0  0  0  0  0  0  0
   14.7070    5.0922  -16.2196 C   0  0  0  0  0  0  0  0  0  0  0  0
   13.7659    6.0178  -16.6856 C   0  0  0  0  0  0  0  0  0  0  0  0
   12.7986    6.4476  -15.8131 C   0  0  0  0  0  0  0  0  0  0  0  0
   12.6365    5.1073  -11.9477 C   0  0  0  0  0  0  0  0  0  0  0  0
   13.6535    4.6086  -12.7734 C   0  0  0  0  0  0  0  0  0  0  0  0
   11.7956    6.4319  -13.6788 N   0  0  0  0  0  0  0  0  0  0  0  0
   11.7019    6.0190  -12.3885 C   0  0  0  0  0  0  0  0  0  0  0  0
   13.4734    3.7836  -10.1726 C   0  0  0  0  0  0  0  0  0  0  0  0
   14.4347    3.3257  -10.9864 N   0  0  0  0  0  0  0  0  0  0  0  0
   14.5520    3.7078  -12.2642 C   0  0  0  0  0  0  0  0  0  0  0  0
   12.5514    4.6874  -10.6409 C   0  0  0  0  0  0  0  0  0  0  0  0
   10.6786    6.5185  -11.5395 N   0  0  0  0  0  0  0  0  0  0  0  0
    9.5606    7.2434  -11.9751 C   0  0  0  0  0  0  0  0  0  0  0  0
    9.5151    7.6394  -13.3023 C   0  0  0  0  0  0  0  0  0  0  0  0
    8.4218    8.3420  -13.7584 C   0  0  0  0  0  0  0  0  0  0  0  0
    7.3719    8.6584  -12.9125 C   0  0  0  0  0  0  0  0  0  0  0  0
    7.4132    8.2646  -11.5796 C   0  0  0  0  0  0  0  0  0  0  0  0
    8.5206    7.5559  -11.1307 C   0  0  0  0  0  0  0  0  0  0  0  0
    8.4069    8.8135  -15.4657 Cl  0  0  0  0  0  0  0  0  0  0  0  0
   13.8073    6.5201  -18.0456 C   0  0  0  0  0  0  0  0  0  0  0  0
   12.7828    7.2302  -18.5711 O   0  0  0  0  0  0  0  0  0  0  0  0
   14.8655    6.2566  -18.7189 O   0  0  0  0  0  0  0  0  0  0  0  0
  2  1  1  0
  1  6  2  0
  9  1  1  0
  2  3  2  0
  8  2  1  0
  3  4  1  0
  4  5  2  0
  6  5  1  0
  5 23  1  0
  7  8  2  0
  7 10  1  0
 14  7  1  0
  8 13  1  0
 10  9  2  0
 10 15  1  0
 11 12  1  0
 11 14  2  0
 12 13  2  0
 15 16  1  0
 16 17  2  0
 16 21  1  0
 17 18  1  0
 18 19  2  0
 18 22  1  0
 19 20  1  0
 20 21  2  0
 23 24  1  0
 23 25  2  0
M  END
$$$$
