
     RDKit          3D

 25 28  0  0  0  0  0  0  0  0999 V2000
   12.7429    5.8599  -14.5899 C   0  0  0  0  0  0  0  0  0  0  0  0
   13.7425    4.9720  -14.2167 C   0  0  0  0  0  0  0  0  0  0  0  0
   14.7401    4.6318  -15.0948 C   0  0  0  0  0  0  0  0  0  0  0  0
   14.7870    5.1537  -16.3686 C   0  0  0  0  0  0  0  0  0  0  0  0
   13.8098    6.0351  -16.7646 C   0  0  0  0  0  0  0  0  0  0  0  0
   12.8158    6.3730  -15.8865 C   0  0  0  0  0  0  0  0  0  0  0  0
   12.6319    4.8295  -12.0436 C   0  0  0  0  0  0  0  0  0  0  0  0
   13.6562    4.4652  -12.9115 C   0  0  0  0  0  0  0  0  0  0  0  0
   11.7741    6.1994  -13.7577 N   0  0  0  0  0  0  0  0  0  0  0  0
   11.6793    5.7200  -12.5018 C   0  0  0  0  0  0  0  0  0  0  0  0
   13.5923    3.4186  -10.3915 C   0  0  0  0  0  0  0  0  0  0  0  0
   14.5592    3.0892  -11.2446 N   0  0  0  0  0  0  0  0  0  0  0  0
   14.6289    3.5845  -12.5029 C   0  0  0  0  0  0  0  0  0  0  0  0
   12.5979    4.3028  -10.7715 C   0  0  0  0  0  0  0  0  0  0  0  0
   10.5992    6.1081  -11.6725 N   0  0  0  0  0  0  0  0  0  0  0  0
    9.6215    7.0724  -12.0334 C   0  0  0  0  0  0  0  0  0  0  0  0
    9.0516    7.9813  -11.1769 C   0  0  0  0  0  0  0  0  0  0  0  0
    8.1017    8.9179  -11.6043 C   0  0  0  0  0  0  0  0  0  0  0  0
    7.7026    8.9569  -12.9202 C   0  0  0  0  0  0  0  0  0  0  0  0
    8.2583    8.0588  -13.7921 C   0  0  0  0  0  0  0  0  0  0  0  0
    9.1883    7.1436  -13.3677 C   0  0  0  0  0  0  0  0  0  0  0  0
    7.4093   10.0533  -10.4688 Cl  0  0  0  0  0  0  0  0  0  0  0  0
   13.8116    6.6222  -18.1180 C   0  0  0  0  0  0  0  0  0  0  0  0
   14.8963    6.4949  -18.9667 O   0  0  0  0  0  0  0  0  0  0  0  0
   12.8055    7.2624  -18.5347 O   0  0  0  0  0  0  0  0  0  0  0  0
  2  1  1  0
  1  6  2  0
  9  1  1  0
  2  3  2  0
  8  2  1  0
  3  4  1  0
  4  5  2  0
  6  5  1  0
  5 23  1  0
  7  8  2  0
  7 10  1  0
 14  7  1  0
  8 13  1  0
 10  9  2  0
 10 15  1  0
 11 12  1  0
 11 14  2  0
 12 13  2  0
 15 16  1  0
 16 17  2  0
 16 21  1  0
 17 18  1  0
 18 19  2  0
 18 22  1  0
 19 20  1  0
 20 21  2  0
 23 24  1  0
 23 25  2  0
M  END
$$$$
