
     RDKit          3D

 25 28  0  0  0  0  0  0  0  0999 V2000
   12.8416    6.0926  -14.4058 C   0  0  0  0  0  0  0  0  0  0  0  0
   13.8151    5.2055  -13.9675 C   0  0  0  0  0  0  0  0  0  0  0  0
   14.8324    4.8149  -14.8009 C   0  0  0  0  0  0  0  0  0  0  0  0
   14.9254    5.2841  -16.0926 C   0  0  0  0  0  0  0  0  0  0  0  0
   13.9748    6.1634  -16.5528 C   0  0  0  0  0  0  0  0  0  0  0  0
   12.9610    6.5516  -15.7191 C   0  0  0  0  0  0  0  0  0  0  0  0
   12.6389    5.1680  -11.8248 C   0  0  0  0  0  0  0  0  0  0  0  0
   13.6822    4.7534  -12.6462 C   0  0  0  0  0  0  0  0  0  0  0  0
   11.8544    6.4802  -13.6173 N   0  0  0  0  0  0  0  0  0  0  0  0
   11.7149    6.0536  -12.3467 C   0  0  0  0  0  0  0  0  0  0  0  0
   13.5271    3.8107  -10.0894 C   0  0  0  0  0  0  0  0  0  0  0  0
   14.5131    3.4325  -10.8992 N   0  0  0  0  0  0  0  0  0  0  0  0
   14.6279    3.8753  -12.1736 C   0  0  0  0  0  0  0  0  0  0  0  0
   12.5588    4.6938  -10.5343 C   0  0  0  0  0  0  0  0  0  0  0  0
   10.6174    6.4913  -11.5665 N   0  0  0  0  0  0  0  0  0  0  0  0
    9.5914    7.3500  -12.0419 C   0  0  0  0  0  0  0  0  0  0  0  0
    9.3572    7.6495  -13.3610 C   0  0  0  0  0  0  0  0  0  0  0  0
    8.3145    8.4944  -13.7623 C   0  0  0  0  0  0  0  0  0  0  0  0
    7.4771    9.0613  -12.8298 C   0  0  0  0  0  0  0  0  0  0  0  0
    7.6928    8.7763  -11.5078 C   0  0  0  0  0  0  0  0  0  0  0  0
    8.7158    7.9480  -11.1205 C   0  0  0  0  0  0  0  0  0  0  0  0
    8.0621    8.8403  -15.4577 Cl  0  0  0  0  0  0  0  0  0  0  0  0
   14.0259    6.6952  -17.9279 C   0  0  0  0  0  0  0  0  0  0  0  0
   12.9731    7.4067  -18.4743 O   0  0  0  0  0  0  0  0  0  0  0  0
   15.0494    6.5083  -18.6442 O   0  0  0  0  0  0  0  0  0  0  0  0
  2  1  1  0
  1  6  2  0
  9  1  1  0
  2  3  2  0
  8  2  1  0
  3  4  1  0
  4  5  2  0
  6  5  1  0
  5 23  1  0
  7  8  2  0
  7 10  1  0
 14  7  1  0
  8 13  1  0
 10  9  2  0
 10 15  1  0
 11 12  1  0
 11 14  2  0
 12 13  2  0
 15 16  1  0
 16 17  2  0
 16 21  1  0
 17 18  1  0
 18 19  2  0
 18 22  1  0
 19 20  1  0
 20 21  2  0
 23 24  1  0
 23 25  2  0
M  END
$$$$
