
     RDKit          3D

 25 28  0  0  0  0  0  0  0  0999 V2000
   12.7243    6.0460  -14.6196 C   0  0  0  0  0  0  0  0  0  0  0  0
   13.6678    5.1050  -14.1861 C   0  0  0  0  0  0  0  0  0  0  0  0
   14.6278    4.6335  -15.0584 C   0  0  0  0  0  0  0  0  0  0  0  0
   14.6395    5.1028  -16.3514 C   0  0  0  0  0  0  0  0  0  0  0  0
   13.7070    6.0428  -16.8057 C   0  0  0  0  0  0  0  0  0  0  0  0
   12.7634    6.4946  -15.9185 C   0  0  0  0  0  0  0  0  0  0  0  0
   12.6467    5.1780  -12.0433 C   0  0  0  0  0  0  0  0  0  0  0  0
   13.6395    4.6566  -12.8842 C   0  0  0  0  0  0  0  0  0  0  0  0
   11.7987    6.5083  -13.7666 N   0  0  0  0  0  0  0  0  0  0  0  0
   11.7209    6.1041  -12.4725 C   0  0  0  0  0  0  0  0  0  0  0  0
   13.4914    3.8489  -10.2760 C   0  0  0  0  0  0  0  0  0  0  0  0
   14.4296    3.3694  -11.1043 N   0  0  0  0  0  0  0  0  0  0  0  0
   14.5307    3.7425  -12.3861 C   0  0  0  0  0  0  0  0  0  0  0  0
   12.5775    4.7667  -10.7329 C   0  0  0  0  0  0  0  0  0  0  0  0
   10.7221    6.6266  -11.6083 N   0  0  0  0  0  0  0  0  0  0  0  0
    9.7556    7.5710  -11.9812 C   0  0  0  0  0  0  0  0  0  0  0  0
    9.0817    8.2478  -10.9770 C   0  0  0  0  0  0  0  0  0  0  0  0
    8.1362    9.1897  -11.3169 C   0  0  0  0  0  0  0  0  0  0  0  0
    7.8493    9.4681  -12.6428 C   0  0  0  0  0  0  0  0  0  0  0  0
    8.5215    8.7910  -13.6542 C   0  0  0  0  0  0  0  0  0  0  0  0
    9.4737    7.8435  -13.2996 C   0  0  0  0  0  0  0  0  0  0  0  0
    7.3127   10.0353   -9.9962 Cl  0  0  0  0  0  0  0  0  0  0  0  0
   13.7330    6.5370  -18.1691 C   0  0  0  0  0  0  0  0  0  0  0  0
   14.7881    6.3118  -18.9852 O   0  0  0  0  0  0  0  0  0  0  0  0
   12.7038    7.1948  -18.5570 O   0  0  0  0  0  0  0  0  0  0  0  0
  2  1  1  0
  1  6  2  0
  9  1  1  0
  2  3  2  0
  8  2  1  0
  3  4  1  0
  4  5  2  0
  6  5  1  0
  5 23  1  0
  7  8  2  0
  7 10  1  0
 14  7  1  0
  8 13  1  0
 10  9  2  0
 10 15  1  0
 11 12  1  0
 11 14  2  0
 12 13  2  0
 15 16  1  0
 16 17  2  0
 16 21  1  0
 17 18  1  0
 18 19  2  0
 18 22  1  0
 19 20  1  0
 20 21  2  0
 23 24  1  0
 23 25  2  0
M  END
$$$$
