
     RDKit          3D

 25 28  0  0  0  0  0  0  0  0999 V2000
   12.6932    6.0002  -14.5691 C   0  0  0  0  0  0  0  0  0  0  0  0
   13.6480    5.0947  -14.1272 C   0  0  0  0  0  0  0  0  0  0  0  0
   14.6650    4.6903  -14.9545 C   0  0  0  0  0  0  0  0  0  0  0  0
   14.7760    5.1633  -16.2433 C   0  0  0  0  0  0  0  0  0  0  0  0
   13.8442    6.0607  -16.7069 C   0  0  0  0  0  0  0  0  0  0  0  0
   12.8307    6.4626  -15.8794 C   0  0  0  0  0  0  0  0  0  0  0  0
   12.4547    5.0681  -11.9939 C   0  0  0  0  0  0  0  0  0  0  0  0
   13.4971    4.6393  -12.8091 C   0  0  0  0  0  0  0  0  0  0  0  0
   11.7067    6.4011  -13.7866 N   0  0  0  0  0  0  0  0  0  0  0  0
   11.5500    5.9716  -12.5190 C   0  0  0  0  0  0  0  0  0  0  0  0
   13.3060    3.6885  -10.2577 C   0  0  0  0  0  0  0  0  0  0  0  0
   14.2917    3.2968  -11.0615 N   0  0  0  0  0  0  0  0  0  0  0  0
   14.4240    3.7431  -12.3330 C   0  0  0  0  0  0  0  0  0  0  0  0
   12.3565    4.5898  -10.7061 C   0  0  0  0  0  0  0  0  0  0  0  0
   10.4541    6.4246  -11.7453 N   0  0  0  0  0  0  0  0  0  0  0  0
    9.5423    7.4294  -12.1636 C   0  0  0  0  0  0  0  0  0  0  0  0
    8.3260    7.6871  -11.5815 C   0  0  0  0  0  0  0  0  0  0  0  0
    7.4805    8.7073  -12.0362 C   0  0  0  0  0  0  0  0  0  0  0  0
    7.8493    9.4974  -13.1001 C   0  0  0  0  0  0  0  0  0  0  0  0
    9.0588    9.2575  -13.6961 C   0  0  0  0  0  0  0  0  0  0  0  0
    9.8828    8.2568  -13.2464 C   0  0  0  0  0  0  0  0  0  0  0  0
    5.9418    8.9914  -11.2555 Cl  0  0  0  0  0  0  0  0  0  0  0  0
   13.9151    6.5974  -18.0793 C   0  0  0  0  0  0  0  0  0  0  0  0
   15.0329    6.4204  -18.8746 O   0  0  0  0  0  0  0  0  0  0  0  0
   12.9401    7.2389  -18.5624 O   0  0  0  0  0  0  0  0  0  0  0  0
  2  1  1  0
  1  6  2  0
  9  1  1  0
  2  3  2  0
  8  2  1  0
  3  4  1  0
  4  5  2  0
  6  5  1  0
  5 23  1  0
  7  8  2  0
  7 10  1  0
 14  7  1  0
  8 13  1  0
 10  9  2  0
 10 15  1  0
 11 12  1  0
 11 14  2  0
 12 13  2  0
 15 16  1  0
 16 17  2  0
 16 21  1  0
 17 18  1  0
 18 19  2  0
 18 22  1  0
 19 20  1  0
 20 21  2  0
 23 24  1  0
 23 25  2  0
M  END
$$$$
