
     RDKit          3D

 25 28  0  0  0  0  0  0  0  0999 V2000
   12.5734    5.8159  -14.6248 C   0  0  0  0  0  0  0  0  0  0  0  0
   13.5074    4.8682  -14.2296 C   0  0  0  0  0  0  0  0  0  0  0  0
   14.4729    4.4311  -15.1009 C   0  0  0  0  0  0  0  0  0  0  0  0
   14.5510    4.9118  -16.3892 C   0  0  0  0  0  0  0  0  0  0  0  0
   13.6387    5.8508  -16.8072 C   0  0  0  0  0  0  0  0  0  0  0  0
   12.6767    6.2853  -15.9358 C   0  0  0  0  0  0  0  0  0  0  0  0
   12.4011    4.8691  -12.0496 C   0  0  0  0  0  0  0  0  0  0  0  0
   13.3914    4.4063  -12.9101 C   0  0  0  0  0  0  0  0  0  0  0  0
   11.6365    6.2489  -13.7995 N   0  0  0  0  0  0  0  0  0  0  0  0
   11.5137    5.8136  -12.5301 C   0  0  0  0  0  0  0  0  0  0  0  0
   13.2647    3.4391  -10.3609 C   0  0  0  0  0  0  0  0  0  0  0  0
   14.2003    3.0157  -11.2074 N   0  0  0  0  0  0  0  0  0  0  0  0
   14.2993    3.4687  -12.4796 C   0  0  0  0  0  0  0  0  0  0  0  0
   12.3355    4.3825  -10.7629 C   0  0  0  0  0  0  0  0  0  0  0  0
   10.4693    6.3031  -11.7088 N   0  0  0  0  0  0  0  0  0  0  0  0
    9.4903    7.2390  -12.1346 C   0  0  0  0  0  0  0  0  0  0  0  0
    9.0821    7.4232  -13.4323 C   0  0  0  0  0  0  0  0  0  0  0  0
    8.0970    8.3559  -13.7813 C   0  0  0  0  0  0  0  0  0  0  0  0
    7.4967    9.1313  -12.8165 C   0  0  0  0  0  0  0  0  0  0  0  0
    7.8889    8.9642  -11.5151 C   0  0  0  0  0  0  0  0  0  0  0  0
    8.8544    8.0490  -11.1792 C   0  0  0  0  0  0  0  0  0  0  0  0
    7.6154    8.5474  -15.4514 Cl  0  0  0  0  0  0  0  0  0  0  0  0
   13.6761    6.3976  -18.1768 C   0  0  0  0  0  0  0  0  0  0  0  0
   12.6353    7.1502  -18.6902 O   0  0  0  0  0  0  0  0  0  0  0  0
   14.6761    6.1859  -18.9189 O   0  0  0  0  0  0  0  0  0  0  0  0
  2  1  1  0
  1  6  2  0
  9  1  1  0
  2  3  2  0
  8  2  1  0
  3  4  1  0
  4  5  2  0
  6  5  1  0
  5 23  1  0
  7  8  2  0
  7 10  1  0
 14  7  1  0
  8 13  1  0
 10  9  2  0
 10 15  1  0
 11 12  1  0
 11 14  2  0
 12 13  2  0
 15 16  1  0
 16 17  2  0
 16 21  1  0
 17 18  1  0
 18 19  2  0
 18 22  1  0
 19 20  1  0
 20 21  2  0
 23 24  1  0
 23 25  2  0
M  END
$$$$
