
     RDKit          3D

 25 28  0  0  0  0  0  0  0  0999 V2000
   12.4848    6.1955  -14.6444 C   0  0  0  0  0  0  0  0  0  0  0  0
   13.4773    5.3176  -14.2306 C   0  0  0  0  0  0  0  0  0  0  0  0
   14.4947    4.9611  -15.0791 C   0  0  0  0  0  0  0  0  0  0  0  0
   14.5690    5.4563  -16.3622 C   0  0  0  0  0  0  0  0  0  0  0  0
   13.5994    6.3272  -16.7982 C   0  0  0  0  0  0  0  0  0  0  0  0
   12.5856    6.6814  -15.9496 C   0  0  0  0  0  0  0  0  0  0  0  0
   12.3191    5.2185  -12.0801 C   0  0  0  0  0  0  0  0  0  0  0  0
   13.3629    4.8382  -12.9173 C   0  0  0  0  0  0  0  0  0  0  0  0
   11.4973    6.5504  -13.8411 N   0  0  0  0  0  0  0  0  0  0  0  0
   11.3755    6.0973  -12.5778 C   0  0  0  0  0  0  0  0  0  0  0  0
   13.2449    3.8445  -10.3778 C   0  0  0  0  0  0  0  0  0  0  0  0
   14.2309    3.4992  -11.2023 N   0  0  0  0  0  0  0  0  0  0  0  0
   14.3278    3.9682  -12.4688 C   0  0  0  0  0  0  0  0  0  0  0  0
   12.2577    4.7185  -10.7983 C   0  0  0  0  0  0  0  0  0  0  0  0
   10.2767    6.5005  -11.7810 N   0  0  0  0  0  0  0  0  0  0  0  0
    9.2555    7.3850  -12.2176 C   0  0  0  0  0  0  0  0  0  0  0  0
    8.9068    7.6078  -13.5265 C   0  0  0  0  0  0  0  0  0  0  0  0
    7.8756    8.4846  -13.8869 C   0  0  0  0  0  0  0  0  0  0  0  0
    7.1669    9.1629  -12.9225 C   0  0  0  0  0  0  0  0  0  0  0  0
    7.4983    8.9558  -11.6100 C   0  0  0  0  0  0  0  0  0  0  0  0
    8.5094    8.0957  -11.2629 C   0  0  0  0  0  0  0  0  0  0  0  0
    7.4736    8.7291  -15.5711 Cl  0  0  0  0  0  0  0  0  0  0  0  0
   13.6303    6.8858  -18.1632 C   0  0  0  0  0  0  0  0  0  0  0  0
   12.5742    7.6175  -18.6757 O   0  0  0  0  0  0  0  0  0  0  0  0
   14.6386    6.7042  -18.9020 O   0  0  0  0  0  0  0  0  0  0  0  0
  2  1  1  0
  1  6  2  0
  9  1  1  0
  2  3  2  0
  8  2  1  0
  3  4  1  0
  4  5  2  0
  6  5  1  0
  5 23  1  0
  7  8  2  0
  7 10  1  0
 14  7  1  0
  8 13  1  0
 10  9  2  0
 10 15  1  0
 11 12  1  0
 11 14  2  0
 12 13  2  0
 15 16  1  0
 16 17  2  0
 16 21  1  0
 17 18  1  0
 18 19  2  0
 18 22  1  0
 19 20  1  0
 20 21  2  0
 23 24  1  0
 23 25  2  0
M  END
$$$$
