
     RDKit          3D

 25 28  0  0  0  0  0  0  0  0999 V2000
   12.7104    6.1284  -14.5403 C   0  0  0  0  0  0  0  0  0  0  0  0
   13.6813    5.2140  -14.1559 C   0  0  0  0  0  0  0  0  0  0  0  0
   14.6610    4.8229  -15.0331 C   0  0  0  0  0  0  0  0  0  0  0  0
   14.7175    5.3185  -16.3170 C   0  0  0  0  0  0  0  0  0  0  0  0
   13.7685    6.2252  -16.7242 C   0  0  0  0  0  0  0  0  0  0  0  0
   12.7923    6.6138  -15.8470 C   0  0  0  0  0  0  0  0  0  0  0  0
   12.5807    5.1513  -11.9739 C   0  0  0  0  0  0  0  0  0  0  0  0
   13.5863    4.7355  -12.8407 C   0  0  0  0  0  0  0  0  0  0  0  0
   11.7592    6.5169  -13.7091 N   0  0  0  0  0  0  0  0  0  0  0  0
   11.6563    6.0651  -12.4437 C   0  0  0  0  0  0  0  0  0  0  0  0
   13.5030    3.7400  -10.3005 C   0  0  0  0  0  0  0  0  0  0  0  0
   14.4524    3.3613  -11.1528 N   0  0  0  0  0  0  0  0  0  0  0  0
   14.5309    3.8298  -12.4208 C   0  0  0  0  0  0  0  0  0  0  0  0
   12.5370    4.6504  -10.6918 C   0  0  0  0  0  0  0  0  0  0  0  0
   10.5956    6.5059  -11.6158 N   0  0  0  0  0  0  0  0  0  0  0  0
    9.5196    7.3184  -12.0608 C   0  0  0  0  0  0  0  0  0  0  0  0
    9.1867    7.5425  -13.3737 C   0  0  0  0  0  0  0  0  0  0  0  0
    8.0996    8.3448  -13.7430 C   0  0  0  0  0  0  0  0  0  0  0  0
    7.3170    8.9448  -12.7840 C   0  0  0  0  0  0  0  0  0  0  0  0
    7.6313    8.7350  -11.4677 C   0  0  0  0  0  0  0  0  0  0  0  0
    8.6975    7.9481  -11.1118 C   0  0  0  0  0  0  0  0  0  0  0  0
    7.7211    8.5948  -15.4319 Cl  0  0  0  0  0  0  0  0  0  0  0  0
   13.7815    6.7860  -18.0887 C   0  0  0  0  0  0  0  0  0  0  0  0
   12.7199    7.5206  -18.5854 O   0  0  0  0  0  0  0  0  0  0  0  0
   14.7792    6.6035  -18.8417 O   0  0  0  0  0  0  0  0  0  0  0  0
  2  1  1  0
  1  6  2  0
  9  1  1  0
  2  3  2  0
  8  2  1  0
  3  4  1  0
  4  5  2  0
  6  5  1  0
  5 23  1  0
  7  8  2  0
  7 10  1  0
 14  7  1  0
  8 13  1  0
 10  9  2  0
 10 15  1  0
 11 12  1  0
 11 14  2  0
 12 13  2  0
 15 16  1  0
 16 17  2  0
 16 21  1  0
 17 18  1  0
 18 19  2  0
 18 22  1  0
 19 20  1  0
 20 21  2  0
 23 24  1  0
 23 25  2  0
M  END
$$$$
