
     RDKit          3D

 25 28  0  0  0  0  0  0  0  0999 V2000
   12.6851    6.0673  -14.4009 C   0  0  0  0  0  0  0  0  0  0  0  0
   13.6470    5.1681  -13.9613 C   0  0  0  0  0  0  0  0  0  0  0  0
   14.6704    4.7783  -14.7877 C   0  0  0  0  0  0  0  0  0  0  0  0
   14.7810    5.2600  -16.0733 C   0  0  0  0  0  0  0  0  0  0  0  0
   13.8422    6.1514  -16.5346 C   0  0  0  0  0  0  0  0  0  0  0  0
   12.8224    6.5388  -15.7080 C   0  0  0  0  0  0  0  0  0  0  0  0
   12.4472    5.1176  -11.8320 C   0  0  0  0  0  0  0  0  0  0  0  0
   13.4962    4.7034  -12.6464 C   0  0  0  0  0  0  0  0  0  0  0  0
   11.6924    6.4543  -13.6192 N   0  0  0  0  0  0  0  0  0  0  0  0
   11.5357    6.0157  -12.3547 C   0  0  0  0  0  0  0  0  0  0  0  0
   13.3060    3.7356  -10.1013 C   0  0  0  0  0  0  0  0  0  0  0  0
   14.2978    3.3581  -10.9043 N   0  0  0  0  0  0  0  0  0  0  0  0
   14.4300    3.8131  -12.1727 C   0  0  0  0  0  0  0  0  0  0  0  0
   12.3494    4.6307  -10.5475 C   0  0  0  0  0  0  0  0  0  0  0  0
   10.4332    6.4538  -11.5819 N   0  0  0  0  0  0  0  0  0  0  0  0
    9.4458    7.3638  -12.0432 C   0  0  0  0  0  0  0  0  0  0  0  0
    8.9925    7.4524  -13.3359 C   0  0  0  0  0  0  0  0  0  0  0  0
    8.0018    8.3651  -13.7202 C   0  0  0  0  0  0  0  0  0  0  0  0
    7.4418    9.2174  -12.7970 C   0  0  0  0  0  0  0  0  0  0  0  0
    7.8795    9.1463  -11.5013 C   0  0  0  0  0  0  0  0  0  0  0  0
    8.8502    8.2503  -11.1307 C   0  0  0  0  0  0  0  0  0  0  0  0
    7.4616    8.4333  -15.3819 Cl  0  0  0  0  0  0  0  0  0  0  0  0
   13.9125    6.6969  -17.9035 C   0  0  0  0  0  0  0  0  0  0  0  0
   12.8722    7.4244  -18.4529 O   0  0  0  0  0  0  0  0  0  0  0  0
   14.9414    6.5075  -18.6114 O   0  0  0  0  0  0  0  0  0  0  0  0
  2  1  1  0
  1  6  2  0
  9  1  1  0
  2  3  2  0
  8  2  1  0
  3  4  1  0
  4  5  2  0
  6  5  1  0
  5 23  1  0
  7  8  2  0
  7 10  1  0
 14  7  1  0
  8 13  1  0
 10  9  2  0
 10 15  1  0
 11 12  1  0
 11 14  2  0
 12 13  2  0
 15 16  1  0
 16 17  2  0
 16 21  1  0
 17 18  1  0
 18 19  2  0
 18 22  1  0
 19 20  1  0
 20 21  2  0
 23 24  1  0
 23 25  2  0
M  END
$$$$
