
     RDKit          3D

 25 28  0  0  0  0  0  0  0  0999 V2000
   12.3314    6.1518  -14.6699 C   0  0  0  0  0  0  0  0  0  0  0  0
   13.3085    5.2553  -14.2168 C   0  0  0  0  0  0  0  0  0  0  0  0
   14.3467    4.8839  -15.0468 C   0  0  0  0  0  0  0  0  0  0  0  0
   14.4025    5.4079  -16.3175 C   0  0  0  0  0  0  0  0  0  0  0  0
   13.4376    6.3050  -16.7907 C   0  0  0  0  0  0  0  0  0  0  0  0
   12.4161    6.6571  -15.9456 C   0  0  0  0  0  0  0  0  0  0  0  0
   12.1619    5.1710  -12.1389 C   0  0  0  0  0  0  0  0  0  0  0  0
   13.2344    4.7507  -12.9375 C   0  0  0  0  0  0  0  0  0  0  0  0
   11.3292    6.5170  -13.8575 N   0  0  0  0  0  0  0  0  0  0  0  0
   11.2032    6.0535  -12.5872 C   0  0  0  0  0  0  0  0  0  0  0  0
   12.9887    3.8241  -10.3766 C   0  0  0  0  0  0  0  0  0  0  0  0
   14.0033    3.4415  -11.1643 N   0  0  0  0  0  0  0  0  0  0  0  0
   14.1538    3.8749  -12.4221 C   0  0  0  0  0  0  0  0  0  0  0  0
   12.0441    4.7004  -10.8521 C   0  0  0  0  0  0  0  0  0  0  0  0
   10.1234    6.4736  -11.7656 N   0  0  0  0  0  0  0  0  0  0  0  0
    9.1863    7.4555  -12.1160 C   0  0  0  0  0  0  0  0  0  0  0  0
    8.7071    7.4671  -13.4163 C   0  0  0  0  0  0  0  0  0  0  0  0
    7.7764    8.4138  -13.7827 C   0  0  0  0  0  0  0  0  0  0  0  0
    7.3152    9.3517  -12.8740 C   0  0  0  0  0  0  0  0  0  0  0  0
    7.7938    9.3454  -11.5685 C   0  0  0  0  0  0  0  0  0  0  0  0
    8.7319    8.3854  -11.2100 C   0  0  0  0  0  0  0  0  0  0  0  0
    7.1868    8.3775  -15.4525 Cl  0  0  0  0  0  0  0  0  0  0  0  0
   13.5100    6.8578  -18.1296 C   0  0  0  0  0  0  0  0  0  0  0  0
   12.4943    7.5810  -18.6544 O   0  0  0  0  0  0  0  0  0  0  0  0
   14.5867    6.6258  -18.7850 O   0  0  0  0  0  0  0  0  0  0  0  0
  2  1  1  0
  1  6  2  0
  9  1  1  0
  2  3  2  0
  8  2  1  0
  3  4  1  0
  4  5  2  0
  6  5  1  0
  5 23  1  0
  7  8  2  0
  7 10  1  0
 14  7  1  0
  8 13  1  0
 10  9  2  0
 10 15  1  0
 11 12  1  0
 11 14  2  0
 12 13  2  0
 15 16  1  0
 16 17  2  0
 16 21  1  0
 17 18  1  0
 18 19  2  0
 18 22  1  0
 19 20  1  0
 20 21  2  0
 23 24  1  0
 23 25  2  0
M  END
$$$$
