
     RDKit          3D

 25 28  0  0  0  0  0  0  0  0999 V2000
   12.5313    5.9810  -14.7096 C   0  0  0  0  0  0  0  0  0  0  0  0
   13.4883    5.0548  -14.3182 C   0  0  0  0  0  0  0  0  0  0  0  0
   14.4530    4.6313  -15.1969 C   0  0  0  0  0  0  0  0  0  0  0  0
   14.5079    5.1048  -16.4891 C   0  0  0  0  0  0  0  0  0  0  0  0
   13.5725    6.0225  -16.9034 C   0  0  0  0  0  0  0  0  0  0  0  0
   12.6113    6.4435  -16.0247 C   0  0  0  0  0  0  0  0  0  0  0  0
   12.4052    5.0482  -12.1266 C   0  0  0  0  0  0  0  0  0  0  0  0
   13.3954    4.5996  -12.9946 C   0  0  0  0  0  0  0  0  0  0  0  0
   11.5946    6.4007  -13.8772 N   0  0  0  0  0  0  0  0  0  0  0  0
   11.4940    5.9715  -12.6037 C   0  0  0  0  0  0  0  0  0  0  0  0
   13.3152    3.6471  -10.4380 C   0  0  0  0  0  0  0  0  0  0  0  0
   14.2500    3.2369  -11.2916 N   0  0  0  0  0  0  0  0  0  0  0  0
   14.3265    3.6832  -12.5677 C   0  0  0  0  0  0  0  0  0  0  0  0
   12.3630    4.5691  -10.8362 C   0  0  0  0  0  0  0  0  0  0  0  0
   10.4488    6.4455  -11.7745 N   0  0  0  0  0  0  0  0  0  0  0  0
    9.4842    7.4070  -12.1760 C   0  0  0  0  0  0  0  0  0  0  0  0
    8.6679    8.1122  -11.3270 C   0  0  0  0  0  0  0  0  0  0  0  0
    7.7469    9.0602  -11.7909 C   0  0  0  0  0  0  0  0  0  0  0  0
    7.6291    9.3188  -13.1368 C   0  0  0  0  0  0  0  0  0  0  0  0
    8.4337    8.6262  -14.0019 C   0  0  0  0  0  0  0  0  0  0  0  0
    9.3341    7.6988  -13.5418 C   0  0  0  0  0  0  0  0  0  0  0  0
    6.7325    9.9302  -10.6631 Cl  0  0  0  0  0  0  0  0  0  0  0  0
   13.5845    6.5607  -18.2769 C   0  0  0  0  0  0  0  0  0  0  0  0
   14.6625    6.3752  -19.1235 O   0  0  0  0  0  0  0  0  0  0  0  0
   12.5937    7.2115  -18.7135 O   0  0  0  0  0  0  0  0  0  0  0  0
  2  1  1  0
  1  6  2  0
  9  1  1  0
  2  3  2  0
  8  2  1  0
  3  4  1  0
  4  5  2  0
  6  5  1  0
  5 23  1  0
  7  8  2  0
  7 10  1  0
 14  7  1  0
  8 13  1  0
 10  9  2  0
 10 15  1  0
 11 12  1  0
 11 14  2  0
 12 13  2  0
 15 16  1  0
 16 17  2  0
 16 21  1  0
 17 18  1  0
 18 19  2  0
 18 22  1  0
 19 20  1  0
 20 21  2  0
 23 24  1  0
 23 25  2  0
M  END
$$$$
