
     RDKit          3D

 25 28  0  0  0  0  0  0  0  0999 V2000
   12.3694    5.9712  -14.5876 C   0  0  0  0  0  0  0  0  0  0  0  0
   13.3521    5.0609  -14.1761 C   0  0  0  0  0  0  0  0  0  0  0  0
   14.3607    4.6911  -15.0425 C   0  0  0  0  0  0  0  0  0  0  0  0
   14.3816    5.2303  -16.3078 C   0  0  0  0  0  0  0  0  0  0  0  0
   13.4105    6.1413  -16.7398 C   0  0  0  0  0  0  0  0  0  0  0  0
   12.4189    6.4915  -15.8590 C   0  0  0  0  0  0  0  0  0  0  0  0
   12.2698    4.9606  -12.0646 C   0  0  0  0  0  0  0  0  0  0  0  0
   13.3133    4.5411  -12.9013 C   0  0  0  0  0  0  0  0  0  0  0  0
   11.3961    6.3347  -13.7399 N   0  0  0  0  0  0  0  0  0  0  0  0
   11.3055    5.8566  -12.4721 C   0  0  0  0  0  0  0  0  0  0  0  0
   13.1391    3.5850  -10.3454 C   0  0  0  0  0  0  0  0  0  0  0  0
   14.1252    3.2036  -11.1689 N   0  0  0  0  0  0  0  0  0  0  0  0
   14.2404    3.6512  -12.4254 C   0  0  0  0  0  0  0  0  0  0  0  0
   12.1879    4.4750  -10.7806 C   0  0  0  0  0  0  0  0  0  0  0  0
   10.2555    6.2756  -11.6122 N   0  0  0  0  0  0  0  0  0  0  0  0
    9.2301    7.1605  -11.9738 C   0  0  0  0  0  0  0  0  0  0  0  0
    9.0300    7.4130  -13.3216 C   0  0  0  0  0  0  0  0  0  0  0  0
    8.0210    8.2690  -13.7039 C   0  0  0  0  0  0  0  0  0  0  0  0
    7.2076    8.8797  -12.7640 C   0  0  0  0  0  0  0  0  0  0  0  0
    7.4050    8.6308  -11.4104 C   0  0  0  0  0  0  0  0  0  0  0  0
    8.4253    7.7652  -11.0364 C   0  0  0  0  0  0  0  0  0  0  0  0
    7.7989    8.5481  -15.4388 Cl  0  0  0  0  0  0  0  0  0  0  0  0
   13.4462    6.7100  -18.0735 C   0  0  0  0  0  0  0  0  0  0  0  0
   12.4167    7.4395  -18.5614 O   0  0  0  0  0  0  0  0  0  0  0  0
   14.5042    6.4857  -18.7611 O   0  0  0  0  0  0  0  0  0  0  0  0
  2  1  1  0
  1  6  2  0
  9  1  1  0
  2  3  2  0
  8  2  1  0
  3  4  1  0
  4  5  2  0
  6  5  1  0
  5 23  1  0
  7  8  2  0
  7 10  1  0
 14  7  1  0
  8 13  1  0
 10  9  2  0
 10 15  1  0
 11 12  1  0
 11 14  2  0
 12 13  2  0
 15 16  1  0
 16 17  2  0
 16 21  1  0
 17 18  1  0
 18 19  2  0
 18 22  1  0
 19 20  1  0
 20 21  2  0
 23 24  1  0
 23 25  2  0
M  END
$$$$
