
     RDKit          3D

 25 28  0  0  0  0  0  0  0  0999 V2000
   12.6407    6.0154  -14.3559 C   0  0  0  0  0  0  0  0  0  0  0  0
   13.5810    5.0841  -13.8954 C   0  0  0  0  0  0  0  0  0  0  0  0
   14.5834    4.6390  -14.7332 C   0  0  0  0  0  0  0  0  0  0  0  0
   14.6403    5.1247  -16.0189 C   0  0  0  0  0  0  0  0  0  0  0  0
   13.7118    6.0555  -16.4997 C   0  0  0  0  0  0  0  0  0  0  0  0
   12.7254    6.4809  -15.6466 C   0  0  0  0  0  0  0  0  0  0  0  0
   12.4721    5.1138  -11.7956 C   0  0  0  0  0  0  0  0  0  0  0  0
   13.5069    4.6189  -12.6013 C   0  0  0  0  0  0  0  0  0  0  0  0
   11.6736    6.4521  -13.5362 N   0  0  0  0  0  0  0  0  0  0  0  0
   11.5496    6.0303  -12.2513 C   0  0  0  0  0  0  0  0  0  0  0  0
   13.2656    3.7759  -10.0112 C   0  0  0  0  0  0  0  0  0  0  0  0
   14.2446    3.3219  -10.8060 N   0  0  0  0  0  0  0  0  0  0  0  0
   14.3919    3.7128  -12.0780 C   0  0  0  0  0  0  0  0  0  0  0  0
   12.3563    4.6848  -10.4941 C   0  0  0  0  0  0  0  0  0  0  0  0
   10.5079    6.5259  -11.4225 N   0  0  0  0  0  0  0  0  0  0  0  0
    9.4903    7.3912  -11.8477 C   0  0  0  0  0  0  0  0  0  0  0  0
    9.4985    7.8104  -13.1686 C   0  0  0  0  0  0  0  0  0  0  0  0
    8.5028    8.6509  -13.6147 C   0  0  0  0  0  0  0  0  0  0  0  0
    7.4980    9.0825  -12.7649 C   0  0  0  0  0  0  0  0  0  0  0  0
    7.4859    8.6660  -11.4383 C   0  0  0  0  0  0  0  0  0  0  0  0
    8.4949    7.8178  -10.9996 C   0  0  0  0  0  0  0  0  0  0  0  0
    8.5519    9.1471  -15.3143 Cl  0  0  0  0  0  0  0  0  0  0  0  0
   13.7854    6.5673  -17.8548 C   0  0  0  0  0  0  0  0  0  0  0  0
   14.8457    6.3089  -18.6541 O   0  0  0  0  0  0  0  0  0  0  0  0
   12.7927    7.2737  -18.2524 O   0  0  0  0  0  0  0  0  0  0  0  0
  2  1  1  0
  1  6  2  0
  9  1  1  0
  2  3  2  0
  8  2  1  0
  3  4  1  0
  4  5  2  0
  6  5  1  0
  5 23  1  0
  7  8  2  0
  7 10  1  0
 14  7  1  0
  8 13  1  0
 10  9  2  0
 10 15  1  0
 11 12  1  0
 11 14  2  0
 12 13  2  0
 15 16  1  0
 16 17  2  0
 16 21  1  0
 17 18  1  0
 18 19  2  0
 18 22  1  0
 19 20  1  0
 20 21  2  0
 23 24  1  0
 23 25  2  0
M  END
$$$$
