
     RDKit          3D

 25 28  0  0  0  0  0  0  0  0999 V2000
   12.6889    6.0290  -14.3979 C   0  0  0  0  0  0  0  0  0  0  0  0
   13.6688    5.1538  -13.9499 C   0  0  0  0  0  0  0  0  0  0  0  0
   14.6979    4.7740  -14.7739 C   0  0  0  0  0  0  0  0  0  0  0  0
   14.7967    5.2427  -16.0653 C   0  0  0  0  0  0  0  0  0  0  0  0
   13.8401    6.1103  -16.5350 C   0  0  0  0  0  0  0  0  0  0  0  0
   12.8145    6.4877  -15.7108 C   0  0  0  0  0  0  0  0  0  0  0  0
   12.4743    5.1052  -11.8176 C   0  0  0  0  0  0  0  0  0  0  0  0
   13.5296    4.7017  -12.6293 C   0  0  0  0  0  0  0  0  0  0  0  0
   11.6904    6.4059  -13.6187 N   0  0  0  0  0  0  0  0  0  0  0  0
   11.5447    5.9793  -12.3487 C   0  0  0  0  0  0  0  0  0  0  0  0
   13.3630    3.7605  -10.0727 C   0  0  0  0  0  0  0  0  0  0  0  0
   14.3604    3.3927  -10.8733 N   0  0  0  0  0  0  0  0  0  0  0  0
   14.4813    3.8353  -12.1473 C   0  0  0  0  0  0  0  0  0  0  0  0
   12.3885    4.6316  -10.5272 C   0  0  0  0  0  0  0  0  0  0  0  0
   10.4354    6.4051  -11.5788 N   0  0  0  0  0  0  0  0  0  0  0  0
    9.5010    7.3878  -11.9997 C   0  0  0  0  0  0  0  0  0  0  0  0
    8.9289    8.3358  -11.1882 C   0  0  0  0  0  0  0  0  0  0  0  0
    8.0239    9.2883  -11.6738 C   0  0  0  0  0  0  0  0  0  0  0  0
    7.6731    9.3036  -13.0039 C   0  0  0  0  0  0  0  0  0  0  0  0
    8.2318    8.3664  -13.8315 C   0  0  0  0  0  0  0  0  0  0  0  0
    9.1178    7.4358  -13.3502 C   0  0  0  0  0  0  0  0  0  0  0  0
    7.3265   10.4738  -10.5939 Cl  0  0  0  0  0  0  0  0  0  0  0  0
   13.8971    6.6409  -17.9103 C   0  0  0  0  0  0  0  0  0  0  0  0
   13.7870    7.9941  -18.1750 O   0  0  0  0  0  0  0  0  0  0  0  0
   14.0509    5.8567  -18.8885 O   0  0  0  0  0  0  0  0  0  0  0  0
  2  1  1  0
  1  6  2  0
  9  1  1  0
  2  3  2  0
  8  2  1  0
  3  4  1  0
  4  5  2  0
  6  5  1  0
  5 23  1  0
  7  8  2  0
  7 10  1  0
 14  7  1  0
  8 13  1  0
 10  9  2  0
 10 15  1  0
 11 12  1  0
 11 14  2  0
 12 13  2  0
 15 16  1  0
 16 17  2  0
 16 21  1  0
 17 18  1  0
 18 19  2  0
 18 22  1  0
 19 20  1  0
 20 21  2  0
 23 24  1  0
 23 25  2  0
M  END
$$$$
