
     RDKit          3D

 25 28  0  0  0  0  0  0  0  0999 V2000
   12.5990    6.1244  -14.8790 C   0  0  0  0  0  0  0  0  0  0  0  0
   13.5731    5.2186  -14.4381 C   0  0  0  0  0  0  0  0  0  0  0  0
   14.5977    4.8381  -15.2807 C   0  0  0  0  0  0  0  0  0  0  0  0
   14.6430    5.3622  -16.5517 C   0  0  0  0  0  0  0  0  0  0  0  0
   13.6809    6.2684  -17.0129 C   0  0  0  0  0  0  0  0  0  0  0  0
   12.6729    6.6295  -16.1554 C   0  0  0  0  0  0  0  0  0  0  0  0
   12.4508    5.1439  -12.3465 C   0  0  0  0  0  0  0  0  0  0  0  0
   13.5097    4.7141  -13.1582 C   0  0  0  0  0  0  0  0  0  0  0  0
   11.6100    6.4984  -14.0544 N   0  0  0  0  0  0  0  0  0  0  0  0
   11.4950    6.0354  -12.7829 C   0  0  0  0  0  0  0  0  0  0  0  0
   13.2864    3.7885  -10.5949 C   0  0  0  0  0  0  0  0  0  0  0  0
   14.2878    3.3969  -11.3949 N   0  0  0  0  0  0  0  0  0  0  0  0
   14.4271    3.8295  -12.6543 C   0  0  0  0  0  0  0  0  0  0  0  0
   12.3442    4.6737  -11.0586 C   0  0  0  0  0  0  0  0  0  0  0  0
   10.4292    6.4650  -11.9481 N   0  0  0  0  0  0  0  0  0  0  0  0
    9.4597    7.4104  -12.3110 C   0  0  0  0  0  0  0  0  0  0  0  0
    9.0950    7.4931  -13.6454 C   0  0  0  0  0  0  0  0  0  0  0  0
    8.1357    8.4050  -14.0261 C   0  0  0  0  0  0  0  0  0  0  0  0
    7.5337    9.2385  -13.0982 C   0  0  0  0  0  0  0  0  0  0  0  0
    7.8971    9.1606  -11.7584 C   0  0  0  0  0  0  0  0  0  0  0  0
    8.8653    8.2365  -11.3857 C   0  0  0  0  0  0  0  0  0  0  0  0
    7.6964    8.4619  -15.7411 Cl  0  0  0  0  0  0  0  0  0  0  0  0
   13.7422    6.8212  -18.3524 C   0  0  0  0  0  0  0  0  0  0  0  0
   14.8353    6.6666  -19.1342 O   0  0  0  0  0  0  0  0  0  0  0  0
   12.7063    7.4604  -18.7537 O   0  0  0  0  0  0  0  0  0  0  0  0
  2  1  1  0
  1  6  2  0
  9  1  1  0
  2  3  2  0
  8  2  1  0
  3  4  1  0
  4  5  2  0
  6  5  1  0
  5 23  1  0
  7  8  2  0
  7 10  1  0
 14  7  1  0
  8 13  1  0
 10  9  2  0
 10 15  1  0
 11 12  1  0
 11 14  2  0
 12 13  2  0
 15 16  1  0
 16 17  2  0
 16 21  1  0
 17 18  1  0
 18 19  2  0
 18 22  1  0
 19 20  1  0
 20 21  2  0
 23 24  1  0
 23 25  2  0
M  END
$$$$
