
     RDKit          3D

 25 28  0  0  0  0  0  0  0  0999 V2000
   12.5063    5.8967  -14.5720 C   0  0  0  0  0  0  0  0  0  0  0  0
   13.4225    4.9506  -14.1334 C   0  0  0  0  0  0  0  0  0  0  0  0
   14.4194    4.5043  -14.9636 C   0  0  0  0  0  0  0  0  0  0  0  0
   14.5476    4.9738  -16.2521 C   0  0  0  0  0  0  0  0  0  0  0  0
   13.6538    5.9108  -16.7124 C   0  0  0  0  0  0  0  0  0  0  0  0
   12.6603    6.3545  -15.8821 C   0  0  0  0  0  0  0  0  0  0  0  0
   12.2340    4.9724  -11.9973 C   0  0  0  0  0  0  0  0  0  0  0  0
   13.2553    4.5004  -12.8154 C   0  0  0  0  0  0  0  0  0  0  0  0
   11.5395    6.3384  -13.7867 N   0  0  0  0  0  0  0  0  0  0  0  0
   11.3676    5.9143  -12.5192 C   0  0  0  0  0  0  0  0  0  0  0  0
   13.0297    3.5554  -10.2647 C   0  0  0  0  0  0  0  0  0  0  0  0
   13.9959    3.1230  -11.0713 N   0  0  0  0  0  0  0  0  0  0  0  0
   14.1442    3.5649  -12.3426 C   0  0  0  0  0  0  0  0  0  0  0  0
   12.1185    4.4970  -10.7099 C   0  0  0  0  0  0  0  0  0  0  0  0
   10.2938    6.4127  -11.7424 N   0  0  0  0  0  0  0  0  0  0  0  0
    9.3088    7.3137  -12.2263 C   0  0  0  0  0  0  0  0  0  0  0  0
    9.0358    7.5524  -13.5503 C   0  0  0  0  0  0  0  0  0  0  0  0
    8.0366    8.4450  -13.9587 C   0  0  0  0  0  0  0  0  0  0  0  0
    7.2837    9.1234  -13.0285 C   0  0  0  0  0  0  0  0  0  0  0  0
    7.5395    8.9006  -11.7017 C   0  0  0  0  0  0  0  0  0  0  0  0
    8.5196    8.0250  -11.3075 C   0  0  0  0  0  0  0  0  0  0  0  0
    7.7314    8.7095  -15.6601 Cl  0  0  0  0  0  0  0  0  0  0  0  0
   13.7445    6.4457  -18.0843 C   0  0  0  0  0  0  0  0  0  0  0  0
   14.8594    6.2374  -18.8760 O   0  0  0  0  0  0  0  0  0  0  0  0
   12.7895    7.1145  -18.5704 O   0  0  0  0  0  0  0  0  0  0  0  0
  2  1  1  0
  1  6  2  0
  9  1  1  0
  2  3  2  0
  8  2  1  0
  3  4  1  0
  4  5  2  0
  6  5  1  0
  5 23  1  0
  7  8  2  0
  7 10  1  0
 14  7  1  0
  8 13  1  0
 10  9  2  0
 10 15  1  0
 11 12  1  0
 11 14  2  0
 12 13  2  0
 15 16  1  0
 16 17  2  0
 16 21  1  0
 17 18  1  0
 18 19  2  0
 18 22  1  0
 19 20  1  0
 20 21  2  0
 23 24  1  0
 23 25  2  0
M  END
$$$$
