
     RDKit          3D

 25 28  0  0  0  0  0  0  0  0999 V2000
   12.2390    5.8304  -14.7825 C   0  0  0  0  0  0  0  0  0  0  0  0
   13.1330    4.8644  -14.3016 C   0  0  0  0  0  0  0  0  0  0  0  0
   14.1399    4.3858  -15.1151 C   0  0  0  0  0  0  0  0  0  0  0  0
   14.2474    4.8730  -16.3971 C   0  0  0  0  0  0  0  0  0  0  0  0
   13.3658    5.8380  -16.8980 C   0  0  0  0  0  0  0  0  0  0  0  0
   12.3737    6.2963  -16.0689 C   0  0  0  0  0  0  0  0  0  0  0  0
   11.9721    4.9280  -12.2309 C   0  0  0  0  0  0  0  0  0  0  0  0
   13.0089    4.3984  -13.0116 C   0  0  0  0  0  0  0  0  0  0  0  0
   11.2674    6.2994  -13.9862 N   0  0  0  0  0  0  0  0  0  0  0  0
   11.0952    5.8786  -12.7066 C   0  0  0  0  0  0  0  0  0  0  0  0
   12.6706    3.5572  -10.4319 C   0  0  0  0  0  0  0  0  0  0  0  0
   13.6528    3.0704  -11.2030 N   0  0  0  0  0  0  0  0  0  0  0  0
   13.8468    3.4594  -12.4693 C   0  0  0  0  0  0  0  0  0  0  0  0
   11.8074    4.4997  -10.9345 C   0  0  0  0  0  0  0  0  0  0  0  0
   10.0511    6.4090  -11.9029 N   0  0  0  0  0  0  0  0  0  0  0  0
    9.2441    7.4993  -12.2569 C   0  0  0  0  0  0  0  0  0  0  0  0
    8.5646    7.4448  -13.4634 C   0  0  0  0  0  0  0  0  0  0  0  0
    7.7554    8.4977  -13.8288 C   0  0  0  0  0  0  0  0  0  0  0  0
    7.6126    9.6064  -13.0113 C   0  0  0  0  0  0  0  0  0  0  0  0
    8.2932    9.6667  -11.8003 C   0  0  0  0  0  0  0  0  0  0  0  0
    9.1061    8.5986  -11.4418 C   0  0  0  0  0  0  0  0  0  0  0  0
    6.8994    8.3731  -15.3745 Cl  0  0  0  0  0  0  0  0  0  0  0  0
   13.4926    6.3508  -18.2488 C   0  0  0  0  0  0  0  0  0  0  0  0
   14.6024    6.1298  -18.9901 O   0  0  0  0  0  0  0  0  0  0  0  0
   12.4978    7.0208  -18.7003 O   0  0  0  0  0  0  0  0  0  0  0  0
  2  1  1  0
  1  6  2  0
  9  1  1  0
  2  3  2  0
  8  2  1  0
  3  4  1  0
  4  5  2  0
  6  5  1  0
  5 23  1  0
  7  8  2  0
  7 10  1  0
 14  7  1  0
  8 13  1  0
 10  9  2  0
 10 15  1  0
 11 12  1  0
 11 14  2  0
 12 13  2  0
 15 16  1  0
 16 17  2  0
 16 21  1  0
 17 18  1  0
 18 19  2  0
 18 22  1  0
 19 20  1  0
 20 21  2  0
 23 24  1  0
 23 25  2  0
M  END
$$$$
