
     RDKit          3D

 25 28  0  0  0  0  0  0  0  0999 V2000
   12.7658    5.6866  -14.5645 C   0  0  0  0  0  0  0  0  0  0  0  0
   13.7052    4.7304  -14.1563 C   0  0  0  0  0  0  0  0  0  0  0  0
   14.6939    4.3151  -15.0252 C   0  0  0  0  0  0  0  0  0  0  0  0
   14.7380    4.8552  -16.2896 C   0  0  0  0  0  0  0  0  0  0  0  0
   13.8101    5.8117  -16.7182 C   0  0  0  0  0  0  0  0  0  0  0  0
   12.8375    6.2065  -15.8351 C   0  0  0  0  0  0  0  0  0  0  0  0
   12.6230    4.6771  -12.0431 C   0  0  0  0  0  0  0  0  0  0  0  0
   13.6441    4.2106  -12.8825 C   0  0  0  0  0  0  0  0  0  0  0  0
   11.8121    6.0940  -13.7144 N   0  0  0  0  0  0  0  0  0  0  0  0
   11.7013    5.6183  -12.4473 C   0  0  0  0  0  0  0  0  0  0  0  0
   13.4294    3.2588  -10.3280 C   0  0  0  0  0  0  0  0  0  0  0  0
   14.3952    2.8330  -11.1540 N   0  0  0  0  0  0  0  0  0  0  0  0
   14.5292    3.2771  -12.4098 C   0  0  0  0  0  0  0  0  0  0  0  0
   12.5205    4.1935  -10.7599 C   0  0  0  0  0  0  0  0  0  0  0  0
   10.6736    6.0845  -11.5848 N   0  0  0  0  0  0  0  0  0  0  0  0
    9.6624    6.9813  -11.9568 C   0  0  0  0  0  0  0  0  0  0  0  0
    9.3140    7.0544  -13.2961 C   0  0  0  0  0  0  0  0  0  0  0  0
    8.3150    7.9185  -13.6860 C   0  0  0  0  0  0  0  0  0  0  0  0
    7.6570    8.7135  -12.7624 C   0  0  0  0  0  0  0  0  0  0  0  0
    8.0036    8.6451  -11.4176 C   0  0  0  0  0  0  0  0  0  0  0  0
    9.0123    7.7694  -11.0357 C   0  0  0  0  0  0  0  0  0  0  0  0
    7.8993    7.9647  -15.4072 Cl  0  0  0  0  0  0  0  0  0  0  0  0
   13.8702    6.3806  -18.0510 C   0  0  0  0  0  0  0  0  0  0  0  0
   12.8679    7.1451  -18.5419 O   0  0  0  0  0  0  0  0  0  0  0  0
   14.9228    6.1216  -18.7347 O   0  0  0  0  0  0  0  0  0  0  0  0
  2  1  1  0
  1  6  2  0
  9  1  1  0
  2  3  2  0
  8  2  1  0
  3  4  1  0
  4  5  2  0
  6  5  1  0
  5 23  1  0
  7  8  2  0
  7 10  1  0
 14  7  1  0
  8 13  1  0
 10  9  2  0
 10 15  1  0
 11 12  1  0
 11 14  2  0
 12 13  2  0
 15 16  1  0
 16 17  2  0
 16 21  1  0
 17 18  1  0
 18 19  2  0
 18 22  1  0
 19 20  1  0
 20 21  2  0
 23 24  1  0
 23 25  2  0
M  END
$$$$
