
     RDKit          3D

 25 28  0  0  0  0  0  0  0  0999 V2000
   12.6515    5.9284  -14.5644 C   0  0  0  0  0  0  0  0  0  0  0  0
   13.6043    5.0105  -14.1442 C   0  0  0  0  0  0  0  0  0  0  0  0
   14.5818    4.5738  -15.0022 C   0  0  0  0  0  0  0  0  0  0  0  0
   14.6539    5.0256  -16.3013 C   0  0  0  0  0  0  0  0  0  0  0  0
   13.7231    5.9346  -16.7439 C   0  0  0  0  0  0  0  0  0  0  0  0
   12.7491    6.3688  -15.8859 C   0  0  0  0  0  0  0  0  0  0  0  0
   12.4909    5.0390  -11.9681 C   0  0  0  0  0  0  0  0  0  0  0  0
   13.4937    4.5775  -12.8146 C   0  0  0  0  0  0  0  0  0  0  0  0
   11.7028    6.3604  -13.7523 N   0  0  0  0  0  0  0  0  0  0  0  0
   11.5850    5.9526  -12.4733 C   0  0  0  0  0  0  0  0  0  0  0  0
   13.3792    3.6681  -10.2436 C   0  0  0  0  0  0  0  0  0  0  0  0
   14.3265    3.2451  -11.0771 N   0  0  0  0  0  0  0  0  0  0  0  0
   14.4201    3.6700  -12.3594 C   0  0  0  0  0  0  0  0  0  0  0  0
   12.4314    4.5816  -10.6704 C   0  0  0  0  0  0  0  0  0  0  0  0
   10.5277    6.4387  -11.6667 N   0  0  0  0  0  0  0  0  0  0  0  0
    9.4776    7.2683  -12.1412 C   0  0  0  0  0  0  0  0  0  0  0  0
    9.2505    7.5833  -13.4579 C   0  0  0  0  0  0  0  0  0  0  0  0
    8.1832    8.3971  -13.8588 C   0  0  0  0  0  0  0  0  0  0  0  0
    7.3131    8.9160  -12.9283 C   0  0  0  0  0  0  0  0  0  0  0  0
    7.5212    8.6147  -11.6087 C   0  0  0  0  0  0  0  0  0  0  0  0
    8.5684    7.8170  -11.2218 C   0  0  0  0  0  0  0  0  0  0  0  0
    7.9413    8.7647  -15.5512 Cl  0  0  0  0  0  0  0  0  0  0  0  0
   13.7534    6.4497  -18.1260 C   0  0  0  0  0  0  0  0  0  0  0  0
   12.6812    7.1301  -18.6743 O   0  0  0  0  0  0  0  0  0  0  0  0
   14.7762    6.2768  -18.8468 O   0  0  0  0  0  0  0  0  0  0  0  0
  2  1  1  0
  1  6  2  0
  9  1  1  0
  2  3  2  0
  8  2  1  0
  3  4  1  0
  4  5  2  0
  6  5  1  0
  5 23  1  0
  7  8  2  0
  7 10  1  0
 14  7  1  0
  8 13  1  0
 10  9  2  0
 10 15  1  0
 11 12  1  0
 11 14  2  0
 12 13  2  0
 15 16  1  0
 16 17  2  0
 16 21  1  0
 17 18  1  0
 18 19  2  0
 18 22  1  0
 19 20  1  0
 20 21  2  0
 23 24  1  0
 23 25  2  0
M  END
$$$$
