
     RDKit          3D

 25 28  0  0  0  0  0  0  0  0999 V2000
   12.6865    6.0585  -14.6343 C   0  0  0  0  0  0  0  0  0  0  0  0
   13.6419    5.1483  -14.2035 C   0  0  0  0  0  0  0  0  0  0  0  0
   14.6429    4.7333  -15.0450 C   0  0  0  0  0  0  0  0  0  0  0  0
   14.7365    5.1999  -16.3376 C   0  0  0  0  0  0  0  0  0  0  0  0
   13.8036    6.1017  -16.7903 C   0  0  0  0  0  0  0  0  0  0  0  0
   12.8062    6.5143  -15.9487 C   0  0  0  0  0  0  0  0  0  0  0  0
   12.4826    5.1394  -12.0514 C   0  0  0  0  0  0  0  0  0  0  0  0
   13.5089    4.6997  -12.8811 C   0  0  0  0  0  0  0  0  0  0  0  0
   11.7153    6.4697  -13.8380 N   0  0  0  0  0  0  0  0  0  0  0  0
   11.5759    6.0468  -12.5661 C   0  0  0  0  0  0  0  0  0  0  0  0
   13.3520    3.7615  -10.3227 C   0  0  0  0  0  0  0  0  0  0  0  0
   14.3220    3.3595  -11.1404 N   0  0  0  0  0  0  0  0  0  0  0  0
   14.4371    3.7993  -12.4158 C   0  0  0  0  0  0  0  0  0  0  0  0
   12.4016    4.6674  -10.7601 C   0  0  0  0  0  0  0  0  0  0  0  0
   10.4956    6.5108  -11.7772 N   0  0  0  0  0  0  0  0  0  0  0  0
    9.4890    7.3971  -12.2433 C   0  0  0  0  0  0  0  0  0  0  0  0
    9.1684    7.6087  -13.5613 C   0  0  0  0  0  0  0  0  0  0  0  0
    8.1503    8.4880  -13.9514 C   0  0  0  0  0  0  0  0  0  0  0  0
    7.4264    9.1803  -13.0086 C   0  0  0  0  0  0  0  0  0  0  0  0
    7.7296    8.9845  -11.6875 C   0  0  0  0  0  0  0  0  0  0  0  0
    8.7281    8.1219  -11.3113 C   0  0  0  0  0  0  0  0  0  0  0  0
    7.7843    8.7179  -15.6459 Cl  0  0  0  0  0  0  0  0  0  0  0  0
   13.8564    6.6319  -18.1660 C   0  0  0  0  0  0  0  0  0  0  0  0
   14.9631    6.4501  -18.9756 O   0  0  0  0  0  0  0  0  0  0  0  0
   12.8754    7.2719  -18.6389 O   0  0  0  0  0  0  0  0  0  0  0  0
  2  1  1  0
  1  6  2  0
  9  1  1  0
  2  3  2  0
  8  2  1  0
  3  4  1  0
  4  5  2  0
  6  5  1  0
  5 23  1  0
  7  8  2  0
  7 10  1  0
 14  7  1  0
  8 13  1  0
 10  9  2  0
 10 15  1  0
 11 12  1  0
 11 14  2  0
 12 13  2  0
 15 16  1  0
 16 17  2  0
 16 21  1  0
 17 18  1  0
 18 19  2  0
 18 22  1  0
 19 20  1  0
 20 21  2  0
 23 24  1  0
 23 25  2  0
M  END
$$$$
