
     RDKit          3D

 25 28  0  0  0  0  0  0  0  0999 V2000
  -22.2401   19.6098  -30.7099 C   0  0  0  0  0  0  0  0  0  0  0  0
  -23.4144   20.6466  -32.2805 C   0  0  0  0  0  0  0  0  0  0  0  0
  -22.4375   19.9195  -32.8487 C   0  0  0  0  0  0  0  0  0  0  0  0
  -20.6003   18.4307  -32.2356 C   0  0  1  0  0  0  0  0  0  0  0  0
  -20.9493   17.2358  -33.0581 C   0  0  0  0  0  0  0  0  0  0  0  0
  -17.1504   18.2461  -28.4298 C   0  0  0  0  0  0  0  0  0  0  0  0
  -17.8748   17.2432  -28.8896 C   0  0  0  0  0  0  0  0  0  0  0  0
  -19.3017   17.0071  -28.5818 C   0  0  0  0  0  0  0  0  0  0  0  0
  -21.2037   18.6374  -28.5218 C   0  0  0  0  0  0  0  0  0  0  0  0
  -21.3347   18.6414  -27.1408 C   0  0  0  0  0  0  0  0  0  0  0  0
  -22.3311   19.3796  -26.5119 C   0  0  0  0  0  0  0  0  0  0  0  0
  -23.2045   20.1207  -27.2690 C   0  0  0  0  0  0  0  0  0  0  0  0
  -23.0878   20.1275  -28.6398 C   0  0  0  0  0  0  0  0  0  0  0  0
  -22.0902   19.3877  -29.2609 C   0  0  0  0  0  0  0  0  0  0  0  0
  -23.3220   20.4752  -30.9122 C   0  0  0  0  0  0  0  0  0  0  0  0
  -19.4029   19.1770  -32.7888 C   0  0  0  0  0  0  0  0  0  0  0  0
  -22.3372   19.9485  -34.3350 C   0  0  0  0  0  0  0  0  0  0  0  0
  -22.7777   21.2796  -34.8972 C   0  0  0  0  0  0  0  0  0  0  0  0
  -24.1552   21.6640  -34.4635 C   0  0  0  0  0  0  0  0  0  0  0  0
  -24.3833   21.4612  -33.0146 C   0  0  0  0  0  0  0  0  0  0  0  0
  -23.8899   20.8293  -29.6261 C   0  0  0  0  0  0  0  0  0  0  0  0
  -21.7101   19.2774  -31.8784 N   0  0  0  0  0  0  0  0  0  0  0  0
  -20.2127   17.8976  -29.0539 O   0  0  0  0  0  0  0  0  0  0  0  0
  -25.3709   21.9678  -32.4320 O   0  0  0  0  0  0  0  0  0  0  0  0
  -24.8745   21.5911  -29.4539 O   0  0  0  0  0  0  0  0  0  0  0  0
 14  1  1  0
  1 15  2  0
  1 22  1  0
  3  2  2  0
 15  2  1  0
  2 20  1  0
  3 17  1  0
 22  3  1  0
  4  5  1  6
  4 16  1  0
 22  4  1  0
  7  6  2  0
  8  7  1  0
 23  8  1  0
  9 10  2  0
  9 14  1  0
  9 23  1  0
 10 11  1  0
 11 12  2  0
 12 13  1  0
 13 14  2  0
 13 21  1  0
 15 21  1  0
 17 18  1  0
 18 19  1  0
 19 20  1  0
 20 24  2  0
 21 25  2  0
M  END
$$$$
