
     RDKit          3D

 25 28  0  0  0  0  0  0  0  0999 V2000
  -21.3809   18.9756  -30.7353 C   0  0  0  0  0  0  0  0  0  0  0  0
  -22.3865   20.2161  -32.2659 C   0  0  0  0  0  0  0  0  0  0  0  0
  -21.4648   19.3832  -32.8740 C   0  0  0  0  0  0  0  0  0  0  0  0
  -19.8178   17.6580  -32.1642 C   0  0  1  0  0  0  0  0  0  0  0  0
  -19.8639   16.9527  -33.4743 C   0  0  0  0  0  0  0  0  0  0  0  0
  -16.9749   15.7845  -30.0010 C   0  0  0  0  0  0  0  0  0  0  0  0
  -18.1758   15.3764  -29.6828 C   0  0  0  0  0  0  0  0  0  0  0  0
  -18.9669   16.0216  -28.6274 C   0  0  0  0  0  0  0  0  0  0  0  0
  -20.6329   17.8635  -28.4828 C   0  0  0  0  0  0  0  0  0  0  0  0
  -20.8516   17.8640  -27.1233 C   0  0  0  0  0  0  0  0  0  0  0  0
  -21.7834   18.7032  -26.5004 C   0  0  0  0  0  0  0  0  0  0  0  0
  -22.5068   19.5607  -27.2927 C   0  0  0  0  0  0  0  0  0  0  0  0
  -22.2856   19.5582  -28.6569 C   0  0  0  0  0  0  0  0  0  0  0  0
  -21.3697   18.7380  -29.2928 C   0  0  0  0  0  0  0  0  0  0  0  0
  -22.3244   19.9514  -30.9279 C   0  0  0  0  0  0  0  0  0  0  0  0
  -18.3920   18.2063  -32.0140 C   0  0  0  0  0  0  0  0  0  0  0  0
  -21.4104   19.5301  -34.3586 C   0  0  0  0  0  0  0  0  0  0  0  0
  -22.8734   19.5979  -34.8546 C   0  0  0  0  0  0  0  0  0  0  0  0
  -23.3712   20.9736  -34.5195 C   0  0  0  0  0  0  0  0  0  0  0  0
  -23.2004   21.1616  -33.0454 C   0  0  0  0  0  0  0  0  0  0  0  0
  -22.9430   20.3770  -29.6779 C   0  0  0  0  0  0  0  0  0  0  0  0
  -20.8450   18.6228  -31.9417 N   0  0  0  0  0  0  0  0  0  0  0  0
  -19.7466   17.0572  -29.0471 O   0  0  0  0  0  0  0  0  0  0  0  0
  -23.7319   22.1063  -32.4454 O   0  0  0  0  0  0  0  0  0  0  0  0
  -23.8426   21.2525  -29.5048 O   0  0  0  0  0  0  0  0  0  0  0  0
 14  1  1  0
  1 15  2  0
  1 22  1  0
  3  2  2  0
 15  2  1  0
  2 20  1  0
 17  3  1  1
 22  3  1  0
  5  4  1  6
 16  4  1  6
  4 22  1  6
  7  6  2  0
  8  7  1  0
  8 23  1  6
  9 10  2  0
  9 14  1  0
  9 23  1  0
 10 11  1  0
 11 12  2  0
 12 13  1  0
 13 14  2  0
 13 21  1  0
 15 21  1  0
 18 17  1  1
 18 19  1  0
 19 20  1  6
 20 24  2  0
 21 25  2  0
M  END
$$$$
