
     RDKit          3D

 25 28  0  0  0  0  0  0  0  0999 V2000
  -20.4223   18.0656  -29.7674 C   0  0  0  0  0  0  0  0  0  0  0  0
  -18.7592   16.6549  -29.3617 C   0  0  0  0  0  0  0  0  0  0  0  0
  -18.9114   16.8088  -30.6880 C   0  0  0  0  0  0  0  0  0  0  0  0
  -20.3024   18.0128  -32.2953 C   0  0  1  0  0  0  0  0  0  0  0  0
  -19.2978   18.8236  -33.0434 C   0  0  0  0  0  0  0  0  0  0  0  0
  -22.2433   20.7847  -33.9795 C   0  0  0  0  0  0  0  0  0  0  0  0
  -23.3248   20.5300  -33.2671 C   0  0  0  0  0  0  0  0  0  0  0  0
  -23.4341   20.6679  -31.7990 C   0  0  0  0  0  0  0  0  0  0  0  0
  -22.4169   19.7463  -29.7025 C   0  0  0  0  0  0  0  0  0  0  0  0
  -23.2536   20.4346  -28.8362 C   0  0  0  0  0  0  0  0  0  0  0  0
  -23.1307   20.3044  -27.4573 C   0  0  0  0  0  0  0  0  0  0  0  0
  -22.1636   19.4790  -26.9390 C   0  0  0  0  0  0  0  0  0  0  0  0
  -21.3261   18.7892  -27.7846 C   0  0  0  0  0  0  0  0  0  0  0  0
  -21.4547   18.9244  -29.1607 C   0  0  0  0  0  0  0  0  0  0  0  0
  -19.7075   17.4428  -28.7371 C   0  0  0  0  0  0  0  0  0  0  0  0
  -20.8099   16.8383  -33.1074 C   0  0  0  0  0  0  0  0  0  0  0  0
  -17.9894   16.0476  -31.5769 C   0  0  0  0  0  0  0  0  0  0  0  0
  -17.5874   14.7272  -30.9630 C   0  0  0  0  0  0  0  0  0  0  0  0
  -16.9870   14.8800  -29.6029 C   0  0  0  0  0  0  0  0  0  0  0  0
  -17.7559   15.7967  -28.7307 C   0  0  0  0  0  0  0  0  0  0  0  0
  -20.2468   17.8728  -27.4619 C   0  0  0  0  0  0  0  0  0  0  0  0
  -19.9399   17.6813  -30.9407 N   0  0  0  0  0  0  0  0  0  0  0  0
  -22.6007   19.9257  -31.0240 O   0  0  0  0  0  0  0  0  0  0  0  0
  -17.5580   15.8401  -27.4936 O   0  0  0  0  0  0  0  0  0  0  0  0
  -19.8304   17.4998  -26.3363 O   0  0  0  0  0  0  0  0  0  0  0  0
 14  1  1  0
  1 15  2  0
  1 22  1  0
  3  2  2  0
 15  2  1  0
  2 20  1  0
  3 17  1  0
 22  3  1  0
  4  5  1  6
  4 16  1  0
 22  4  1  0
  7  6  2  0
  8  7  1  0
 23  8  1  0
  9 10  2  0
  9 14  1  0
  9 23  1  0
 10 11  1  0
 11 12  2  0
 12 13  1  0
 13 14  2  0
 13 21  1  0
 15 21  1  0
 17 18  1  0
 18 19  1  0
 19 20  1  0
 20 24  2  0
 21 25  2  0
M  END
$$$$
