
     RDKit          3D

 25 28  0  0  0  0  0  0  0  0999 V2000
  -20.3235   18.1571  -29.7500 C   0  0  0  0  0  0  0  0  0  0  0  0
  -18.8202   16.6943  -29.0478 C   0  0  0  0  0  0  0  0  0  0  0  0
  -18.7808   16.7759  -30.4280 C   0  0  0  0  0  0  0  0  0  0  0  0
  -19.9841   18.0186  -32.2171 C   0  0  1  0  0  0  0  0  0  0  0  0
  -18.8900   18.7125  -32.9503 C   0  0  0  0  0  0  0  0  0  0  0  0
  -22.9049   20.0877  -34.4506 C   0  0  0  0  0  0  0  0  0  0  0  0
  -22.2838   20.7174  -33.4873 C   0  0  0  0  0  0  0  0  0  0  0  0
  -22.8373   20.8117  -32.1305 C   0  0  0  0  0  0  0  0  0  0  0  0
  -22.2223   19.9595  -29.8756 C   0  0  0  0  0  0  0  0  0  0  0  0
  -23.0852   20.7118  -29.1104 C   0  0  0  0  0  0  0  0  0  0  0  0
  -23.1304   20.6356  -27.7130 C   0  0  0  0  0  0  0  0  0  0  0  0
  -22.2691   19.7670  -27.0883 C   0  0  0  0  0  0  0  0  0  0  0  0
  -21.4039   19.0133  -27.8586 C   0  0  0  0  0  0  0  0  0  0  0  0
  -21.3430   19.0725  -29.2402 C   0  0  0  0  0  0  0  0  0  0  0  0
  -19.7894   17.5632  -28.6358 C   0  0  0  0  0  0  0  0  0  0  0  0
  -20.4193   16.8389  -33.0973 C   0  0  0  0  0  0  0  0  0  0  0  0
  -17.7525   15.8924  -31.0528 C   0  0  0  0  0  0  0  0  0  0  0  0
  -16.4656   16.0381  -30.2080 C   0  0  0  0  0  0  0  0  0  0  0  0
  -16.6924   15.2502  -28.9509 C   0  0  0  0  0  0  0  0  0  0  0  0
  -17.9296   15.7890  -28.3054 C   0  0  0  0  0  0  0  0  0  0  0  0
  -20.4078   18.0403  -27.4044 C   0  0  0  0  0  0  0  0  0  0  0  0
  -19.7001   17.6686  -30.8634 N   0  0  0  0  0  0  0  0  0  0  0  0
  -22.1983   20.0528  -31.1965 O   0  0  0  0  0  0  0  0  0  0  0  0
  -18.2368   15.4928  -27.1422 O   0  0  0  0  0  0  0  0  0  0  0  0
  -20.1497   17.6981  -26.2119 O   0  0  0  0  0  0  0  0  0  0  0  0
 14  1  1  0
  1 15  2  0
  1 22  1  0
  3  2  2  0
 15  2  1  0
  2 20  1  0
 17  3  1  1
 22  3  1  0
  5  4  1  6
 16  4  1  6
  4 22  1  1
  7  6  2  0
  8  7  1  0
  8 23  1  6
  9 10  2  0
  9 14  1  0
  9 23  1  0
 10 11  1  0
 11 12  2  0
 12 13  1  0
 13 14  2  0
 13 21  1  0
 15 21  1  0
 18 17  1  1
 18 19  1  0
 19 20  1  6
 20 24  2  0
 21 25  2  0
M  END
$$$$
