
     RDKit          3D

 25 28  0  0  0  0  0  0  0  0999 V2000
  -22.2379   19.2461  -30.9468 C   0  0  0  0  0  0  0  0  0  0  0  0
  -23.4376   20.3474  -32.4530 C   0  0  0  0  0  0  0  0  0  0  0  0
  -22.4688   19.6472  -33.0671 C   0  0  0  0  0  0  0  0  0  0  0  0
  -20.6207   18.1367  -32.5472 C   0  0  1  0  0  0  0  0  0  0  0  0
  -20.7510   16.6887  -32.2119 C   0  0  0  0  0  0  0  0  0  0  0  0
  -18.3818   16.2164  -31.2766 C   0  0  0  0  0  0  0  0  0  0  0  0
  -18.2845   16.0574  -29.9701 C   0  0  0  0  0  0  0  0  0  0  0  0
  -19.2267   16.6030  -28.9695 C   0  0  0  0  0  0  0  0  0  0  0  0
  -21.1666   18.1821  -28.8191 C   0  0  0  0  0  0  0  0  0  0  0  0
  -21.2760   18.1264  -27.4373 C   0  0  0  0  0  0  0  0  0  0  0  0
  -22.2634   18.8350  -26.7618 C   0  0  0  0  0  0  0  0  0  0  0  0
  -23.1492   19.6064  -27.4727 C   0  0  0  0  0  0  0  0  0  0  0  0
  -23.0539   19.6725  -28.8435 C   0  0  0  0  0  0  0  0  0  0  0  0
  -22.0652   18.9619  -29.5113 C   0  0  0  0  0  0  0  0  0  0  0  0
  -23.3238   20.1174  -31.0949 C   0  0  0  0  0  0  0  0  0  0  0  0
  -20.1795   18.3553  -33.9805 C   0  0  0  0  0  0  0  0  0  0  0  0
  -22.3916   19.7404  -34.5521 C   0  0  0  0  0  0  0  0  0  0  0  0
  -22.8423   21.0937  -35.0495 C   0  0  0  0  0  0  0  0  0  0  0  0
  -24.2134   21.4566  -34.5783 C   0  0  0  0  0  0  0  0  0  0  0  0
  -24.4187   21.1912  -33.1362 C   0  0  0  0  0  0  0  0  0  0  0  0
  -23.8720   20.4147  -29.7861 C   0  0  0  0  0  0  0  0  0  0  0  0
  -21.7258   18.9652  -32.1367 N   0  0  0  0  0  0  0  0  0  0  0  0
  -20.1831   17.4676  -29.3978 O   0  0  0  0  0  0  0  0  0  0  0  0
  -25.3976   21.6705  -32.5171 O   0  0  0  0  0  0  0  0  0  0  0  0
  -24.8546   21.1667  -29.5660 O   0  0  0  0  0  0  0  0  0  0  0  0
 14  1  1  0
  1 15  2  0
  1 22  1  0
  3  2  2  0
 15  2  1  0
  2 20  1  0
  3 17  1  0
 22  3  1  0
  4  5  1  6
  4 16  1  0
 22  4  1  0
  7  6  2  0
  8  7  1  0
 23  8  1  0
  9 10  2  0
  9 14  1  0
  9 23  1  0
 10 11  1  0
 11 12  2  0
 12 13  1  0
 13 14  2  0
 13 21  1  0
 15 21  1  0
 17 18  1  0
 18 19  1  0
 19 20  1  0
 20 24  2  0
 21 25  2  0
M  END
$$$$
