
     RDKit          3D

 25 28  0  0  0  0  0  0  0  0999 V2000
  -21.9932   19.0992  -31.0198 C   0  0  0  0  0  0  0  0  0  0  0  0
  -23.1664   20.2291  -32.5257 C   0  0  0  0  0  0  0  0  0  0  0  0
  -22.1884   19.5386  -33.1360 C   0  0  0  0  0  0  0  0  0  0  0  0
  -20.3507   18.0165  -32.6127 C   0  0  1  0  0  0  0  0  0  0  0  0
  -19.0276   18.4057  -32.0435 C   0  0  0  0  0  0  0  0  0  0  0  0
  -18.3748   14.8235  -30.7696 C   0  0  0  0  0  0  0  0  0  0  0  0
  -18.0683   15.8783  -30.0380 C   0  0  0  0  0  0  0  0  0  0  0  0
  -18.9491   16.5047  -29.0290 C   0  0  0  0  0  0  0  0  0  0  0  0
  -20.9585   17.9958  -28.8940 C   0  0  0  0  0  0  0  0  0  0  0  0
  -21.0910   17.9155  -27.5154 C   0  0  0  0  0  0  0  0  0  0  0  0
  -22.0887   18.6133  -26.8438 C   0  0  0  0  0  0  0  0  0  0  0  0
  -22.9617   19.3986  -27.5554 C   0  0  0  0  0  0  0  0  0  0  0  0
  -22.8435   19.4891  -28.9230 C   0  0  0  0  0  0  0  0  0  0  0  0
  -21.8447   18.7892  -29.5869 C   0  0  0  0  0  0  0  0  0  0  0  0
  -23.0755   19.9746  -31.1702 C   0  0  0  0  0  0  0  0  0  0  0  0
  -20.6070   16.5271  -32.5002 C   0  0  0  0  0  0  0  0  0  0  0  0
  -22.0864   19.6583  -34.6176 C   0  0  0  0  0  0  0  0  0  0  0  0
  -22.5272   21.0209  -35.0981 C   0  0  0  0  0  0  0  0  0  0  0  0
  -23.9055   21.3773  -34.6434 C   0  0  0  0  0  0  0  0  0  0  0  0
  -24.1351   21.0864  -33.2098 C   0  0  0  0  0  0  0  0  0  0  0  0
  -23.6451   20.2492  -29.8656 C   0  0  0  0  0  0  0  0  0  0  0  0
  -21.4616   18.8390  -32.2059 N   0  0  0  0  0  0  0  0  0  0  0  0
  -19.9664   17.2905  -29.4690 O   0  0  0  0  0  0  0  0  0  0  0  0
  -25.1237   21.5558  -32.5986 O   0  0  0  0  0  0  0  0  0  0  0  0
  -24.6304   20.9985  -29.6484 O   0  0  0  0  0  0  0  0  0  0  0  0
 14  1  1  0
  1 15  2  0
  1 22  1  0
  3  2  2  0
 15  2  1  0
  2 20  1  0
  3 17  1  0
 22  3  1  0
  4  5  1  1
  4 16  1  0
 22  4  1  0
  7  6  2  0
  8  7  1  0
 23  8  1  0
  9 10  2  0
  9 14  1  0
  9 23  1  0
 10 11  1  0
 11 12  2  0
 12 13  1  0
 13 14  2  0
 13 21  1  0
 15 21  1  0
 17 18  1  0
 18 19  1  0
 19 20  1  0
 20 24  2  0
 21 25  2  0
M  END
$$$$
