
     RDKit          3D

 25 28  0  0  0  0  0  0  0  0999 V2000
  -22.1417   19.2419  -30.8374 C   0  0  0  0  0  0  0  0  0  0  0  0
  -23.3185   20.2422  -32.4295 C   0  0  0  0  0  0  0  0  0  0  0  0
  -22.3292   19.5195  -32.9815 C   0  0  0  0  0  0  0  0  0  0  0  0
  -20.4777   18.0622  -32.3364 C   0  0  1  0  0  0  0  0  0  0  0  0
  -20.7490   17.0200  -33.3691 C   0  0  0  0  0  0  0  0  0  0  0  0
  -18.5892   15.3242  -30.7011 C   0  0  0  0  0  0  0  0  0  0  0  0
  -18.2894   16.0298  -29.6268 C   0  0  0  0  0  0  0  0  0  0  0  0
  -19.2693   16.6102  -28.6837 C   0  0  0  0  0  0  0  0  0  0  0  0
  -21.1074   18.3126  -28.6297 C   0  0  0  0  0  0  0  0  0  0  0  0
  -21.2471   18.3341  -27.2497 C   0  0  0  0  0  0  0  0  0  0  0  0
  -22.2566   19.0685  -26.6373 C   0  0  0  0  0  0  0  0  0  0  0  0
  -23.1341   19.7881  -27.4100 C   0  0  0  0  0  0  0  0  0  0  0  0
  -23.0088   19.7775  -28.7800 C   0  0  0  0  0  0  0  0  0  0  0  0
  -21.9982   19.0416  -29.3846 C   0  0  0  0  0  0  0  0  0  0  0  0
  -23.2328   20.0909  -31.0584 C   0  0  0  0  0  0  0  0  0  0  0  0
  -19.1964   18.8227  -32.6130 C   0  0  0  0  0  0  0  0  0  0  0  0
  -22.2197   19.5292  -34.4674 C   0  0  0  0  0  0  0  0  0  0  0  0
  -22.6730   20.8469  -35.0508 C   0  0  0  0  0  0  0  0  0  0  0  0
  -24.0579   21.2201  -34.6310 C   0  0  0  0  0  0  0  0  0  0  0  0
  -24.2927   21.0346  -33.1808 C   0  0  0  0  0  0  0  0  0  0  0  0
  -23.8132   20.4556  -29.7809 C   0  0  0  0  0  0  0  0  0  0  0  0
  -21.6002   18.8999  -31.9979 N   0  0  0  0  0  0  0  0  0  0  0  0
  -20.1040   17.5778  -29.1452 O   0  0  0  0  0  0  0  0  0  0  0  0
  -25.2901   21.5369  -32.6115 O   0  0  0  0  0  0  0  0  0  0  0  0
  -24.8082   21.2075  -29.6254 O   0  0  0  0  0  0  0  0  0  0  0  0
 14  1  1  0
  1 15  2  0
  1 22  1  0
  3  2  2  0
 15  2  1  0
  2 20  1  0
  3 17  1  0
 22  3  1  0
  4  5  1  6
  4 16  1  0
 22  4  1  0
  7  6  2  0
  8  7  1  0
 23  8  1  0
  9 10  2  0
  9 14  1  0
  9 23  1  0
 10 11  1  0
 11 12  2  0
 12 13  1  0
 13 14  2  0
 13 21  1  0
 15 21  1  0
 17 18  1  0
 18 19  1  0
 19 20  1  0
 20 24  2  0
 21 25  2  0
M  END
$$$$
