
     RDKit          3D

 25 28  0  0  0  0  0  0  0  0999 V2000
  -21.8737   19.2264  -30.9787 C   0  0  0  0  0  0  0  0  0  0  0  0
  -22.7732   20.1952  -32.7522 C   0  0  0  0  0  0  0  0  0  0  0  0
  -21.7318   19.3755  -33.1478 C   0  0  0  0  0  0  0  0  0  0  0  0
  -20.0669   17.8843  -32.0536 C   0  0  1  0  0  0  0  0  0  0  0  0
  -20.1136   16.7817  -33.0527 C   0  0  0  0  0  0  0  0  0  0  0  0
  -17.8474   15.8963  -29.8180 C   0  0  0  0  0  0  0  0  0  0  0  0
  -18.9024   15.7458  -29.0602 C   0  0  0  0  0  0  0  0  0  0  0  0
  -19.4447   16.8424  -28.2480 C   0  0  0  0  0  0  0  0  0  0  0  0
  -21.3233   18.4474  -28.5374 C   0  0  0  0  0  0  0  0  0  0  0  0
  -21.7006   18.5874  -27.2205 C   0  0  0  0  0  0  0  0  0  0  0  0
  -22.7542   19.4142  -26.8122 C   0  0  0  0  0  0  0  0  0  0  0  0
  -23.4355   20.1124  -27.7792 C   0  0  0  0  0  0  0  0  0  0  0  0
  -23.0550   19.9700  -29.1001 C   0  0  0  0  0  0  0  0  0  0  0  0
  -22.0169   19.1591  -29.5254 C   0  0  0  0  0  0  0  0  0  0  0  0
  -22.8518   20.0932  -31.3929 C   0  0  0  0  0  0  0  0  0  0  0  0
  -18.7013   18.5652  -32.2190 C   0  0  0  0  0  0  0  0  0  0  0  0
  -21.5125   19.3535  -34.6243 C   0  0  0  0  0  0  0  0  0  0  0  0
  -22.9079   19.2439  -35.2815 C   0  0  0  0  0  0  0  0  0  0  0  0
  -23.5338   20.6039  -35.1764 C   0  0  0  0  0  0  0  0  0  0  0  0
  -23.5515   20.9745  -33.7273 C   0  0  0  0  0  0  0  0  0  0  0  0
  -23.6412   20.6087  -30.2806 C   0  0  0  0  0  0  0  0  0  0  0  0
  -21.1763   18.7813  -32.0662 N   0  0  0  0  0  0  0  0  0  0  0  0
  -20.3239   17.6562  -28.8970 O   0  0  0  0  0  0  0  0  0  0  0  0
  -24.2131   21.9359  -33.3110 O   0  0  0  0  0  0  0  0  0  0  0  0
  -24.6122   21.4221  -30.3168 O   0  0  0  0  0  0  0  0  0  0  0  0
 14  1  1  0
  1 15  2  0
  1 22  1  0
  3  2  2  0
 15  2  1  0
  2 20  1  0
 17  3  1  1
 22  3  1  0
  5  4  1  6
 16  4  1  6
  4 22  1  6
  7  6  2  0
  8  7  1  0
  8 23  1  6
  9 10  2  0
  9 14  1  0
  9 23  1  0
 10 11  1  0
 11 12  2  0
 12 13  1  0
 13 14  2  0
 13 21  1  0
 15 21  1  0
 18 17  1  1
 18 19  1  0
 19 20  1  6
 20 24  2  0
 21 25  2  0
M  END
$$$$
