
     RDKit          3D

 25 28  0  0  0  0  0  0  0  0999 V2000
  -21.5032   19.1609  -31.0286 C   0  0  0  0  0  0  0  0  0  0  0  0
  -22.3513   20.1865  -32.7954 C   0  0  0  0  0  0  0  0  0  0  0  0
  -21.3146   19.3603  -33.1901 C   0  0  0  0  0  0  0  0  0  0  0  0
  -19.6955   17.8169  -32.0995 C   0  0  1  0  0  0  0  0  0  0  0  0
  -19.8638   16.5925  -32.9292 C   0  0  0  0  0  0  0  0  0  0  0  0
  -17.5086   15.7695  -29.8214 C   0  0  0  0  0  0  0  0  0  0  0  0
  -18.6580   15.5760  -29.2286 C   0  0  0  0  0  0  0  0  0  0  0  0
  -19.2547   16.5761  -28.3342 C   0  0  0  0  0  0  0  0  0  0  0  0
  -21.0150   18.3143  -28.5965 C   0  0  0  0  0  0  0  0  0  0  0  0
  -21.4171   18.4282  -27.2845 C   0  0  0  0  0  0  0  0  0  0  0  0
  -22.4661   19.2614  -26.8773 C   0  0  0  0  0  0  0  0  0  0  0  0
  -23.1166   19.9935  -27.8403 C   0  0  0  0  0  0  0  0  0  0  0  0
  -22.7114   19.8772  -29.1564 C   0  0  0  0  0  0  0  0  0  0  0  0
  -21.6772   19.0606  -29.5805 C   0  0  0  0  0  0  0  0  0  0  0  0
  -22.4592   20.0528  -31.4410 C   0  0  0  0  0  0  0  0  0  0  0  0
  -18.3501   18.4357  -32.5031 C   0  0  0  0  0  0  0  0  0  0  0  0
  -21.0654   19.3706  -34.6619 C   0  0  0  0  0  0  0  0  0  0  0  0
  -22.4485   19.2990  -35.3496 C   0  0  0  0  0  0  0  0  0  0  0  0
  -23.0556   20.6658  -35.2237 C   0  0  0  0  0  0  0  0  0  0  0  0
  -23.0974   21.0014  -33.7666 C   0  0  0  0  0  0  0  0  0  0  0  0
  -23.2634   20.5536  -30.3324 C   0  0  0  0  0  0  0  0  0  0  0  0
  -20.7906   18.7314  -32.1124 N   0  0  0  0  0  0  0  0  0  0  0  0
  -20.0207   17.5164  -28.9552 O   0  0  0  0  0  0  0  0  0  0  0  0
  -23.7526   21.9627  -33.3402 O   0  0  0  0  0  0  0  0  0  0  0  0
  -24.2209   21.3828  -30.3682 O   0  0  0  0  0  0  0  0  0  0  0  0
 14  1  1  0
  1 15  2  0
  1 22  1  0
  3  2  2  0
 15  2  1  0
  2 20  1  0
 17  3  1  1
 22  3  1  0
  5  4  1  6
 16  4  1  6
  4 22  1  6
  7  6  2  0
  8  7  1  0
  8 23  1  6
  9 10  2  0
  9 14  1  0
  9 23  1  0
 10 11  1  0
 11 12  2  0
 12 13  1  0
 13 14  2  0
 13 21  1  0
 15 21  1  0
 18 17  1  1
 18 19  1  0
 19 20  1  6
 20 24  2  0
 21 25  2  0
M  END
$$$$
