
     RDKit          3D

 25 28  0  0  0  0  0  0  0  0999 V2000
  -22.1413   19.2441  -30.9832 C   0  0  0  0  0  0  0  0  0  0  0  0
  -23.4135   20.3574  -32.4194 C   0  0  0  0  0  0  0  0  0  0  0  0
  -22.4675   19.6736  -33.0852 C   0  0  0  0  0  0  0  0  0  0  0  0
  -20.5875   18.1704  -32.6684 C   0  0  1  0  0  0  0  0  0  0  0  0
  -19.2312   18.6058  -32.2246 C   0  0  0  0  0  0  0  0  0  0  0  0
  -17.6857   15.2438  -30.7806 C   0  0  0  0  0  0  0  0  0  0  0  0
  -18.7777   15.4237  -30.0614 C   0  0  0  0  0  0  0  0  0  0  0  0
  -19.0403   16.5815  -29.1800 C   0  0  0  0  0  0  0  0  0  0  0  0
  -20.9703   18.1585  -28.9198 C   0  0  0  0  0  0  0  0  0  0  0  0
  -21.0189   18.0822  -27.5355 C   0  0  0  0  0  0  0  0  0  0  0  0
  -21.9810   18.7734  -26.8074 C   0  0  0  0  0  0  0  0  0  0  0  0
  -22.9025   19.5479  -27.4677 C   0  0  0  0  0  0  0  0  0  0  0  0
  -22.8676   19.6342  -28.8402 C   0  0  0  0  0  0  0  0  0  0  0  0
  -21.9040   18.9410  -29.5608 C   0  0  0  0  0  0  0  0  0  0  0  0
  -23.2388   20.1090  -31.0711 C   0  0  0  0  0  0  0  0  0  0  0  0
  -20.7993   16.6810  -32.4853 C   0  0  0  0  0  0  0  0  0  0  0  0
  -22.4559   19.7885  -34.5707 C   0  0  0  0  0  0  0  0  0  0  0  0
  -22.9376   21.1451  -35.0283 C   0  0  0  0  0  0  0  0  0  0  0  0
  -24.2894   21.4906  -34.4926 C   0  0  0  0  0  0  0  0  0  0  0  0
  -24.4296   21.2031  -33.0469 C   0  0  0  0  0  0  0  0  0  0  0  0
  -23.7315   20.3833  -29.7355 C   0  0  0  0  0  0  0  0  0  0  0  0
  -21.6796   18.9843  -32.1982 N   0  0  0  0  0  0  0  0  0  0  0  0
  -20.0080   17.4600  -29.5511 O   0  0  0  0  0  0  0  0  0  0  0  0
  -25.3840   21.6658  -32.3788 O   0  0  0  0  0  0  0  0  0  0  0  0
  -24.7090   21.1244  -29.4618 O   0  0  0  0  0  0  0  0  0  0  0  0
 14  1  1  0
  1 15  2  0
  1 22  1  0
  3  2  2  0
 15  2  1  0
  2 20  1  0
  3 17  1  0
 22  3  1  0
  4  5  1  1
  4 16  1  0
 22  4  1  0
  7  6  2  0
  8  7  1  0
 23  8  1  0
  9 10  2  0
  9 14  1  0
  9 23  1  0
 10 11  1  0
 11 12  2  0
 12 13  1  0
 13 14  2  0
 13 21  1  0
 15 21  1  0
 17 18  1  0
 18 19  1  0
 19 20  1  0
 20 24  2  0
 21 25  2  0
M  END
$$$$
