
     RDKit          3D

 25 28  0  0  0  0  0  0  0  0999 V2000
  -21.9118   19.2146  -30.9483 C   0  0  0  0  0  0  0  0  0  0  0  0
  -22.7062   20.1618  -32.7826 C   0  0  0  0  0  0  0  0  0  0  0  0
  -21.6698   19.3071  -33.1117 C   0  0  0  0  0  0  0  0  0  0  0  0
  -20.0944   17.8022  -31.9092 C   0  0  1  0  0  0  0  0  0  0  0  0
  -19.9665   16.8486  -33.0451 C   0  0  0  0  0  0  0  0  0  0  0  0
  -18.4058   15.4476  -30.3588 C   0  0  0  0  0  0  0  0  0  0  0  0
  -18.5875   16.5131  -29.6228 C   0  0  0  0  0  0  0  0  0  0  0  0
  -19.7046   17.4387  -29.8493 C   0  0  0  0  0  0  0  0  0  0  0  0
  -21.4908   18.4820  -28.4672 C   0  0  0  0  0  0  0  0  0  0  0  0
  -21.9225   18.6634  -27.1723 C   0  0  0  0  0  0  0  0  0  0  0  0
  -22.9715   19.5259  -26.8312 C   0  0  0  0  0  0  0  0  0  0  0  0
  -23.5908   20.2169  -27.8439 C   0  0  0  0  0  0  0  0  0  0  0  0
  -23.1558   20.0329  -29.1427 C   0  0  0  0  0  0  0  0  0  0  0  0
  -22.1211   19.1864  -29.5017 C   0  0  0  0  0  0  0  0  0  0  0  0
  -22.8477   20.0950  -31.4262 C   0  0  0  0  0  0  0  0  0  0  0  0
  -18.7176   18.4572  -31.7325 C   0  0  0  0  0  0  0  0  0  0  0  0
  -21.3857   19.2436  -34.5759 C   0  0  0  0  0  0  0  0  0  0  0  0
  -22.7528   19.1527  -35.2925 C   0  0  0  0  0  0  0  0  0  0  0  0
  -23.3474   20.5300  -35.2474 C   0  0  0  0  0  0  0  0  0  0  0  0
  -23.4199   20.9362  -33.8096 C   0  0  0  0  0  0  0  0  0  0  0  0
  -23.6721   20.6570  -30.3629 C   0  0  0  0  0  0  0  0  0  0  0  0
  -21.1785   18.7259  -31.9926 N   0  0  0  0  0  0  0  0  0  0  0  0
  -20.4973   17.6576  -28.7629 O   0  0  0  0  0  0  0  0  0  0  0  0
  -24.0742   21.9235  -33.4460 O   0  0  0  0  0  0  0  0  0  0  0  0
  -24.6192   21.4931  -30.4618 O   0  0  0  0  0  0  0  0  0  0  0  0
 14  1  1  0
  1 15  2  0
  1 22  1  0
  3  2  2  0
 15  2  1  0
  2 20  1  0
 17  3  1  1
 22  3  1  0
  5  4  1  6
 16  4  1  6
  4 22  1  6
  7  6  2  0
  8  7  1  0
  8 23  1  6
  9 10  2  0
  9 14  1  0
  9 23  1  0
 10 11  1  0
 11 12  2  0
 12 13  1  0
 13 14  2  0
 13 21  1  0
 15 21  1  0
 18 17  1  1
 18 19  1  0
 19 20  1  6
 20 24  2  0
 21 25  2  0
M  END
$$$$
