
     RDKit          3D

 25 28  0  0  0  0  0  0  0  0999 V2000
  -20.5110   18.2468  -29.5595 C   0  0  0  0  0  0  0  0  0  0  0  0
  -18.9987   16.8079  -28.8089 C   0  0  0  0  0  0  0  0  0  0  0  0
  -18.9474   16.8628  -30.1507 C   0  0  0  0  0  0  0  0  0  0  0  0
  -20.0255   17.9904  -32.0305 C   0  0  1  0  0  0  0  0  0  0  0  0
  -18.9255   18.7788  -32.6586 C   0  0  0  0  0  0  0  0  0  0  0  0
  -22.3542   20.6918  -34.5893 C   0  0  0  0  0  0  0  0  0  0  0  0
  -22.2640   21.2457  -33.3947 C   0  0  0  0  0  0  0  0  0  0  0  0
  -23.0268   20.8287  -32.1986 C   0  0  0  0  0  0  0  0  0  0  0  0
  -22.4059   20.0047  -29.9150 C   0  0  0  0  0  0  0  0  0  0  0  0
  -23.3244   20.7915  -29.2356 C   0  0  0  0  0  0  0  0  0  0  0  0
  -23.4112   20.7655  -27.8480 C   0  0  0  0  0  0  0  0  0  0  0  0
  -22.5734   19.9460  -27.1327 C   0  0  0  0  0  0  0  0  0  0  0  0
  -21.6572   19.1593  -27.7917 C   0  0  0  0  0  0  0  0  0  0  0  0
  -21.5762   19.1907  -29.1776 C   0  0  0  0  0  0  0  0  0  0  0  0
  -19.9871   17.6793  -28.3917 C   0  0  0  0  0  0  0  0  0  0  0  0
  -20.3769   16.7554  -32.8355 C   0  0  0  0  0  0  0  0  0  0  0  0
  -17.9451   15.9982  -30.8345 C   0  0  0  0  0  0  0  0  0  0  0  0
  -17.7046   14.7154  -30.0738 C   0  0  0  0  0  0  0  0  0  0  0  0
  -17.3025   14.9510  -28.6538 C   0  0  0  0  0  0  0  0  0  0  0  0
  -18.1432   15.9632  -27.9748 C   0  0  0  0  0  0  0  0  0  0  0  0
  -20.6845   18.2293  -27.2459 C   0  0  0  0  0  0  0  0  0  0  0  0
  -19.8824   17.7525  -30.6166 N   0  0  0  0  0  0  0  0  0  0  0  0
  -22.3852   20.0866  -31.2586 O   0  0  0  0  0  0  0  0  0  0  0  0
  -18.1265   16.0960  -26.7284 O   0  0  0  0  0  0  0  0  0  0  0  0
  -20.4566   17.9300  -26.0468 O   0  0  0  0  0  0  0  0  0  0  0  0
 14  1  1  0
  1 15  2  0
  1 22  1  0
  3  2  2  0
 15  2  1  0
  2 20  1  0
  3 17  1  0
 22  3  1  0
  4  5  1  6
  4 16  1  0
 22  4  1  0
  7  6  2  0
  8  7  1  0
 23  8  1  0
  9 10  2  0
  9 14  1  0
  9 23  1  0
 10 11  1  0
 11 12  2  0
 12 13  1  0
 13 14  2  0
 13 21  1  0
 15 21  1  0
 17 18  1  0
 18 19  1  0
 19 20  1  0
 20 24  2  0
 21 25  2  0
M  END
$$$$
