
     RDKit          3D

 25 28  0  0  0  0  0  0  0  0999 V2000
  -22.0347   19.2714  -30.9458 C   0  0  0  0  0  0  0  0  0  0  0  0
  -23.0946   20.2105  -32.6533 C   0  0  0  0  0  0  0  0  0  0  0  0
  -22.0803   19.4550  -33.1077 C   0  0  0  0  0  0  0  0  0  0  0  0
  -20.2917   18.0114  -32.2805 C   0  0  1  0  0  0  0  0  0  0  0  0
  -20.5758   16.7848  -33.0810 C   0  0  0  0  0  0  0  0  0  0  0  0
  -18.6282   15.4155  -30.3280 C   0  0  0  0  0  0  0  0  0  0  0  0
  -18.2370   16.1592  -29.3102 C   0  0  0  0  0  0  0  0  0  0  0  0
  -19.1260   16.9742  -28.4547 C   0  0  0  0  0  0  0  0  0  0  0  0
  -21.1559   18.4322  -28.6370 C   0  0  0  0  0  0  0  0  0  0  0  0
  -21.3840   18.5163  -27.2713 C   0  0  0  0  0  0  0  0  0  0  0  0
  -22.4221   19.2862  -26.7584 C   0  0  0  0  0  0  0  0  0  0  0  0
  -23.2395   19.9786  -27.6174 C   0  0  0  0  0  0  0  0  0  0  0  0
  -23.0262   19.9058  -28.9745 C   0  0  0  0  0  0  0  0  0  0  0  0
  -21.9876   19.1347  -29.4794 C   0  0  0  0  0  0  0  0  0  0  0  0
  -23.0992   20.1195  -31.2742 C   0  0  0  0  0  0  0  0  0  0  0  0
  -19.0483   18.7330  -32.7601 C   0  0  0  0  0  0  0  0  0  0  0  0
  -21.8753   19.3977  -34.5823 C   0  0  0  0  0  0  0  0  0  0  0  0
  -22.2744   20.6920  -35.2511 C   0  0  0  0  0  0  0  0  0  0  0  0
  -23.6790   21.0960  -34.9388 C   0  0  0  0  0  0  0  0  0  0  0  0
  -24.0089   20.9773  -33.5003 C   0  0  0  0  0  0  0  0  0  0  0  0
  -23.7564   20.5459  -30.0543 C   0  0  0  0  0  0  0  0  0  0  0  0
  -21.4236   18.8734  -32.0527 N   0  0  0  0  0  0  0  0  0  0  0  0
  -20.1301   17.6662  -29.0537 O   0  0  0  0  0  0  0  0  0  0  0  0
  -25.0349   21.5133  -33.0194 O   0  0  0  0  0  0  0  0  0  0  0  0
  -24.7503   21.3129  -29.9968 O   0  0  0  0  0  0  0  0  0  0  0  0
 14  1  1  0
  1 15  2  0
  1 22  1  0
  3  2  2  0
 15  2  1  0
  2 20  1  0
  3 17  1  0
 22  3  1  0
  4  5  1  6
  4 16  1  0
 22  4  1  0
  7  6  2  0
  8  7  1  0
 23  8  1  0
  9 10  2  0
  9 14  1  0
  9 23  1  0
 10 11  1  0
 11 12  2  0
 12 13  1  0
 13 14  2  0
 13 21  1  0
 15 21  1  0
 17 18  1  0
 18 19  1  0
 19 20  1  0
 20 24  2  0
 21 25  2  0
M  END
$$$$
