
     RDKit          3D

 25 28  0  0  0  0  0  0  0  0999 V2000
  -21.9127   19.3604  -30.7038 C   0  0  0  0  0  0  0  0  0  0  0  0
  -23.1613   20.4269  -32.1953 C   0  0  0  0  0  0  0  0  0  0  0  0
  -22.2289   19.6921  -32.8251 C   0  0  0  0  0  0  0  0  0  0  0  0
  -20.3799   18.1737  -32.3316 C   0  0  1  0  0  0  0  0  0  0  0  0
  -20.6732   17.3330  -33.5289 C   0  0  0  0  0  0  0  0  0  0  0  0
  -18.4065   15.8399  -31.0234 C   0  0  0  0  0  0  0  0  0  0  0  0
  -18.2962   15.7815  -29.7095 C   0  0  0  0  0  0  0  0  0  0  0  0
  -18.8144   16.7914  -28.7619 C   0  0  0  0  0  0  0  0  0  0  0  0
  -20.7653   18.3544  -28.5876 C   0  0  0  0  0  0  0  0  0  0  0  0
  -20.8163   18.3476  -27.2013 C   0  0  0  0  0  0  0  0  0  0  0  0
  -21.7646   19.0931  -26.5097 C   0  0  0  0  0  0  0  0  0  0  0  0
  -22.6699   19.8525  -27.2089 C   0  0  0  0  0  0  0  0  0  0  0  0
  -22.6324   19.8703  -28.5839 C   0  0  0  0  0  0  0  0  0  0  0  0
  -21.6825   19.1230  -29.2678 C   0  0  0  0  0  0  0  0  0  0  0  0
  -22.9925   20.2418  -30.8361 C   0  0  0  0  0  0  0  0  0  0  0  0
  -19.0360   18.8667  -32.4335 C   0  0  0  0  0  0  0  0  0  0  0  0
  -22.2141   19.7334  -34.3143 C   0  0  0  0  0  0  0  0  0  0  0  0
  -22.6680   21.0753  -34.8390 C   0  0  0  0  0  0  0  0  0  0  0  0
  -24.0128   21.4739  -34.3232 C   0  0  0  0  0  0  0  0  0  0  0  0
  -24.1597   21.2609  -32.8653 C   0  0  0  0  0  0  0  0  0  0  0  0
  -23.4804   20.5916  -29.5164 C   0  0  0  0  0  0  0  0  0  0  0  0
  -21.4556   19.0317  -31.9038 N   0  0  0  0  0  0  0  0  0  0  0  0
  -19.8169   17.6065  -29.1821 O   0  0  0  0  0  0  0  0  0  0  0  0
  -25.1050   21.7751  -32.2224 O   0  0  0  0  0  0  0  0  0  0  0  0
  -24.4429   21.3648  -29.2812 O   0  0  0  0  0  0  0  0  0  0  0  0
 14  1  1  0
  1 15  2  0
  1 22  1  0
  3  2  2  0
 15  2  1  0
  2 20  1  0
  3 17  1  0
 22  3  1  0
  4  5  1  6
  4 16  1  0
 22  4  1  0
  7  6  2  0
  8  7  1  0
 23  8  1  0
  9 10  2  0
  9 14  1  0
  9 23  1  0
 10 11  1  0
 11 12  2  0
 12 13  1  0
 13 14  2  0
 13 21  1  0
 15 21  1  0
 17 18  1  0
 18 19  1  0
 19 20  1  0
 20 24  2  0
 21 25  2  0
M  END
$$$$
