
     RDKit          3D

 25 28  0  0  0  0  0  0  0  0999 V2000
  -21.6940   19.1895  -30.9591 C   0  0  0  0  0  0  0  0  0  0  0  0
  -22.7993   20.3141  -32.5104 C   0  0  0  0  0  0  0  0  0  0  0  0
  -21.8314   19.5268  -33.1073 C   0  0  0  0  0  0  0  0  0  0  0  0
  -20.0638   17.9371  -32.3716 C   0  0  1  0  0  0  0  0  0  0  0  0
  -20.3515   16.7654  -33.2436 C   0  0  0  0  0  0  0  0  0  0  0  0
  -17.1905   15.6753  -29.8682 C   0  0  0  0  0  0  0  0  0  0  0  0
  -18.4874   15.6946  -30.0338 C   0  0  0  0  0  0  0  0  0  0  0  0
  -19.4005   16.1966  -28.9992 C   0  0  0  0  0  0  0  0  0  0  0  0
  -20.8454   18.1974  -28.6864 C   0  0  0  0  0  0  0  0  0  0  0  0
  -21.0468   18.2238  -27.3245 C   0  0  0  0  0  0  0  0  0  0  0  0
  -22.0250   19.0173  -26.7128 C   0  0  0  0  0  0  0  0  0  0  0  0
  -22.8140   19.8007  -27.5192 C   0  0  0  0  0  0  0  0  0  0  0  0
  -22.6100   19.7722  -28.8858 C   0  0  0  0  0  0  0  0  0  0  0  0
  -21.6491   18.9963  -29.5107 C   0  0  0  0  0  0  0  0  0  0  0  0
  -22.7030   20.0942  -31.1664 C   0  0  0  0  0  0  0  0  0  0  0  0
  -18.7953   18.5960  -32.9309 C   0  0  0  0  0  0  0  0  0  0  0  0
  -21.8053   19.6326  -34.5962 C   0  0  0  0  0  0  0  0  0  0  0  0
  -23.2756   19.5880  -35.0729 C   0  0  0  0  0  0  0  0  0  0  0  0
  -23.8602   20.9369  -34.7707 C   0  0  0  0  0  0  0  0  0  0  0  0
  -23.6842   21.1797  -33.3052 C   0  0  0  0  0  0  0  0  0  0  0  0
  -23.3333   20.5147  -29.9205 C   0  0  0  0  0  0  0  0  0  0  0  0
  -21.1506   18.8375  -32.1624 N   0  0  0  0  0  0  0  0  0  0  0  0
  -19.9141   17.4355  -29.2397 O   0  0  0  0  0  0  0  0  0  0  0  0
  -24.2704   22.1044  -32.7252 O   0  0  0  0  0  0  0  0  0  0  0  0
  -24.2874   21.3331  -29.7599 O   0  0  0  0  0  0  0  0  0  0  0  0
 14  1  1  0
  1 15  2  0
  1 22  1  0
  3  2  2  0
 15  2  1  0
  2 20  1  0
 17  3  1  1
 22  3  1  0
  5  4  1  6
 16  4  1  6
  4 22  1  6
  7  6  2  0
  8  7  1  0
  8 23  1  6
  9 10  2  0
  9 14  1  0
  9 23  1  0
 10 11  1  0
 11 12  2  0
 12 13  1  0
 13 14  2  0
 13 21  1  0
 15 21  1  0
 18 17  1  1
 18 19  1  0
 19 20  1  6
 20 24  2  0
 21 25  2  0
M  END
$$$$
