
     RDKit          3D

 25 28  0  0  0  0  0  0  0  0999 V2000
  -20.4200   17.8640  -30.0798 C   0  0  0  0  0  0  0  0  0  0  0  0
  -18.8680   16.3915  -29.5174 C   0  0  0  0  0  0  0  0  0  0  0  0
  -18.9328   16.4961  -30.8951 C   0  0  0  0  0  0  0  0  0  0  0  0
  -20.2675   17.7667  -32.5675 C   0  0  1  0  0  0  0  0  0  0  0  0
  -21.6936   17.5252  -32.9193 C   0  0  0  0  0  0  0  0  0  0  0  0
  -23.5359   20.9338  -34.5657 C   0  0  0  0  0  0  0  0  0  0  0  0
  -22.8402   20.3504  -33.6246 C   0  0  0  0  0  0  0  0  0  0  0  0
  -23.2996   20.2978  -32.2310 C   0  0  0  0  0  0  0  0  0  0  0  0
  -22.3229   19.6658  -30.0320 C   0  0  0  0  0  0  0  0  0  0  0  0
  -23.1256   20.4042  -29.1915 C   0  0  0  0  0  0  0  0  0  0  0  0
  -23.0653   20.3048  -27.7961 C   0  0  0  0  0  0  0  0  0  0  0  0
  -22.1593   19.4271  -27.2527 C   0  0  0  0  0  0  0  0  0  0  0  0
  -21.3547   18.6873  -28.0984 C   0  0  0  0  0  0  0  0  0  0  0  0
  -21.3982   18.7695  -29.4795 C   0  0  0  0  0  0  0  0  0  0  0  0
  -19.8034   17.2523  -29.0191 C   0  0  0  0  0  0  0  0  0  0  0  0
  -19.9722   19.2301  -32.9240 C   0  0  0  0  0  0  0  0  0  0  0  0
  -17.9546   15.6243  -31.6102 C   0  0  0  0  0  0  0  0  0  0  0  0
  -16.6077   15.7576  -30.8625 C   0  0  0  0  0  0  0  0  0  0  0  0
  -16.7390   14.9487  -29.6051 C   0  0  0  0  0  0  0  0  0  0  0  0
  -17.9240   15.4752  -28.8594 C   0  0  0  0  0  0  0  0  0  0  0  0
  -20.3272   17.7082  -27.7369 C   0  0  0  0  0  0  0  0  0  0  0  0
  -19.8824   17.3947  -31.2450 N   0  0  0  0  0  0  0  0  0  0  0  0
  -22.3986   19.7810  -31.3492 O   0  0  0  0  0  0  0  0  0  0  0  0
  -18.1426   15.1594  -27.6814 O   0  0  0  0  0  0  0  0  0  0  0  0
  -19.9800   17.3466  -26.5730 O   0  0  0  0  0  0  0  0  0  0  0  0
 14  1  1  0
  1 15  2  0
  1 22  1  0
  3  2  2  0
 15  2  1  0
  2 20  1  0
 17  3  1  1
 22  3  1  0
  5  4  1  6
 16  4  1  6
  4 22  1  1
  7  6  2  0
  8  7  1  0
  8 23  1  6
  9 10  2  0
  9 14  1  0
  9 23  1  0
 10 11  1  0
 11 12  2  0
 12 13  1  0
 13 14  2  0
 13 21  1  0
 15 21  1  0
 18 17  1  1
 18 19  1  0
 19 20  1  6
 20 24  2  0
 21 25  2  0
M  END
$$$$
