
     RDKit          3D

 25 28  0  0  0  0  0  0  0  0999 V2000
  -20.3726   18.1956  -29.5747 C   0  0  0  0  0  0  0  0  0  0  0  0
  -18.8671   16.7187  -28.9076 C   0  0  0  0  0  0  0  0  0  0  0  0
  -18.9097   16.7478  -30.2897 C   0  0  0  0  0  0  0  0  0  0  0  0
  -20.1876   17.9559  -32.0505 C   0  0  1  0  0  0  0  0  0  0  0  0
  -19.2862   18.9050  -32.7595 C   0  0  0  0  0  0  0  0  0  0  0  0
  -22.3984   21.2828  -34.0280 C   0  0  0  0  0  0  0  0  0  0  0  0
  -22.8008   20.2727  -33.3016 C   0  0  0  0  0  0  0  0  0  0  0  0
  -23.2218   20.4331  -31.9040 C   0  0  0  0  0  0  0  0  0  0  0  0
  -22.2289   20.0441  -29.6564 C   0  0  0  0  0  0  0  0  0  0  0  0
  -23.0242   20.8481  -28.8707 C   0  0  0  0  0  0  0  0  0  0  0  0
  -22.9861   20.8252  -27.4712 C   0  0  0  0  0  0  0  0  0  0  0  0
  -22.1108   19.9569  -26.8659 C   0  0  0  0  0  0  0  0  0  0  0  0
  -21.3136   19.1513  -27.6567 C   0  0  0  0  0  0  0  0  0  0  0  0
  -21.3355   19.1573  -29.0408 C   0  0  0  0  0  0  0  0  0  0  0  0
  -19.7869   17.6289  -28.4723 C   0  0  0  0  0  0  0  0  0  0  0  0
  -20.3329   16.7292  -32.9616 C   0  0  0  0  0  0  0  0  0  0  0  0
  -17.9442   15.8133  -30.9401 C   0  0  0  0  0  0  0  0  0  0  0  0
  -16.6050   15.9545  -30.1802 C   0  0  0  0  0  0  0  0  0  0  0  0
  -16.7748   15.2206  -28.8821 C   0  0  0  0  0  0  0  0  0  0  0  0
  -17.9563   15.8173  -28.1851 C   0  0  0  0  0  0  0  0  0  0  0  0
  -20.3169   18.1686  -27.2256 C   0  0  0  0  0  0  0  0  0  0  0  0
  -19.8308   17.6488  -30.7037 N   0  0  0  0  0  0  0  0  0  0  0  0
  -22.2830   20.0875  -30.9790 O   0  0  0  0  0  0  0  0  0  0  0  0
  -18.1996   15.5733  -26.9950 O   0  0  0  0  0  0  0  0  0  0  0  0
  -19.9955   17.8640  -26.0383 O   0  0  0  0  0  0  0  0  0  0  0  0
 14  1  1  0
  1 15  2  0
  1 22  1  0
  3  2  2  0
 15  2  1  0
  2 20  1  0
 17  3  1  1
 22  3  1  0
  5  4  1  6
 16  4  1  6
  4 22  1  1
  7  6  2  0
  8  7  1  0
  8 23  1  6
  9 10  2  0
  9 14  1  0
  9 23  1  0
 10 11  1  0
 11 12  2  0
 12 13  1  0
 13 14  2  0
 13 21  1  0
 15 21  1  0
 18 17  1  1
 18 19  1  0
 19 20  1  6
 20 24  2  0
 21 25  2  0
M  END
$$$$
