
     RDKit          3D

 25 28  0  0  0  0  0  0  0  0999 V2000
  -21.8387   19.1892  -30.5218 C   0  0  0  0  0  0  0  0  0  0  0  0
  -22.9790   20.3393  -32.0283 C   0  0  0  0  0  0  0  0  0  0  0  0
  -22.0057   19.5848  -32.6579 C   0  0  0  0  0  0  0  0  0  0  0  0
  -20.2051   18.0035  -31.9869 C   0  0  1  0  0  0  0  0  0  0  0  0
  -20.3992   17.0132  -33.0813 C   0  0  0  0  0  0  0  0  0  0  0  0
  -17.8616   15.2583  -30.1905 C   0  0  0  0  0  0  0  0  0  0  0  0
  -19.0155   15.3677  -29.5852 C   0  0  0  0  0  0  0  0  0  0  0  0
  -19.2476   16.3462  -28.5152 C   0  0  0  0  0  0  0  0  0  0  0  0
  -20.9489   18.1469  -28.2875 C   0  0  0  0  0  0  0  0  0  0  0  0
  -21.1353   18.1315  -26.9233 C   0  0  0  0  0  0  0  0  0  0  0  0
  -22.1189   18.8916  -26.2787 C   0  0  0  0  0  0  0  0  0  0  0  0
  -22.9292   19.6848  -27.0539 C   0  0  0  0  0  0  0  0  0  0  0  0
  -22.7402   19.6982  -28.4228 C   0  0  0  0  0  0  0  0  0  0  0  0
  -21.7744   18.9558  -29.0800 C   0  0  0  0  0  0  0  0  0  0  0  0
  -22.8641   20.0830  -30.6922 C   0  0  0  0  0  0  0  0  0  0  0  0
  -18.8780   18.7184  -32.2760 C   0  0  0  0  0  0  0  0  0  0  0  0
  -21.9982   19.7331  -34.1433 C   0  0  0  0  0  0  0  0  0  0  0  0
  -23.4728   19.6785  -34.6051 C   0  0  0  0  0  0  0  0  0  0  0  0
  -24.0751   21.0087  -34.2583 C   0  0  0  0  0  0  0  0  0  0  0  0
  -23.8864   21.2127  -32.7885 C   0  0  0  0  0  0  0  0  0  0  0  0
  -23.4868   20.4579  -29.4281 C   0  0  0  0  0  0  0  0  0  0  0  0
  -21.3035   18.8801  -31.7404 N   0  0  0  0  0  0  0  0  0  0  0  0
  -20.0121   17.4160  -28.8724 O   0  0  0  0  0  0  0  0  0  0  0  0
  -24.4805   22.1111  -32.1761 O   0  0  0  0  0  0  0  0  0  0  0  0
  -24.4517   21.2561  -29.2339 O   0  0  0  0  0  0  0  0  0  0  0  0
 14  1  1  0
  1 15  2  0
  1 22  1  0
  3  2  2  0
 15  2  1  0
  2 20  1  0
 17  3  1  1
 22  3  1  0
  5  4  1  6
 16  4  1  6
  4 22  1  6
  7  6  2  0
  8  7  1  0
  8 23  1  6
  9 10  2  0
  9 14  1  0
  9 23  1  0
 10 11  1  0
 11 12  2  0
 12 13  1  0
 13 14  2  0
 13 21  1  0
 15 21  1  0
 18 17  1  1
 18 19  1  0
 19 20  1  6
 20 24  2  0
 21 25  2  0
M  END
$$$$
