
     RDKit          3D

 25 28  0  0  0  0  0  0  0  0999 V2000
  -21.7337   19.0459  -31.1825 C   0  0  0  0  0  0  0  0  0  0  0  0
  -22.6733   20.1650  -32.8432 C   0  0  0  0  0  0  0  0  0  0  0  0
  -21.6798   19.3413  -33.3406 C   0  0  0  0  0  0  0  0  0  0  0  0
  -20.0239   17.7236  -32.4273 C   0  0  1  0  0  0  0  0  0  0  0  0
  -20.1110   16.7496  -33.5497 C   0  0  0  0  0  0  0  0  0  0  0  0
  -18.8311   14.7202  -29.7760 C   0  0  0  0  0  0  0  0  0  0  0  0
  -18.2550   15.8892  -29.6688 C   0  0  0  0  0  0  0  0  0  0  0  0
  -18.8694   16.9989  -28.9290 C   0  0  0  0  0  0  0  0  0  0  0  0
  -21.1072   18.0809  -28.8275 C   0  0  0  0  0  0  0  0  0  0  0  0
  -21.4224   18.1409  -27.4885 C   0  0  0  0  0  0  0  0  0  0  0  0
  -22.4272   18.9713  -26.9773 C   0  0  0  0  0  0  0  0  0  0  0  0
  -23.1240   19.7572  -27.8626 C   0  0  0  0  0  0  0  0  0  0  0  0
  -22.8059   19.6949  -29.2060 C   0  0  0  0  0  0  0  0  0  0  0  0
  -21.8167   18.8821  -29.7322 C   0  0  0  0  0  0  0  0  0  0  0  0
  -22.6970   19.9710  -31.4919 C   0  0  0  0  0  0  0  0  0  0  0  0
  -18.6345   18.3696  -32.5172 C   0  0  0  0  0  0  0  0  0  0  0  0
  -21.5250   19.4151  -34.8235 C   0  0  0  0  0  0  0  0  0  0  0  0
  -22.9503   19.3974  -35.4228 C   0  0  0  0  0  0  0  0  0  0  0  0
  -23.5221   20.7665  -35.1969 C   0  0  0  0  0  0  0  0  0  0  0  0
  -23.4643   21.0356  -33.7266 C   0  0  0  0  0  0  0  0  0  0  0  0
  -23.4190   20.4333  -30.3123 C   0  0  0  0  0  0  0  0  0  0  0  0
  -21.1000   18.6552  -32.3283 N   0  0  0  0  0  0  0  0  0  0  0  0
  -20.1532   17.2844  -29.2852 O   0  0  0  0  0  0  0  0  0  0  0  0
  -24.0725   21.9866  -33.2161 O   0  0  0  0  0  0  0  0  0  0  0  0
  -24.3609   21.2785  -30.2490 O   0  0  0  0  0  0  0  0  0  0  0  0
 14  1  1  0
  1 15  2  0
  1 22  1  0
  3  2  2  0
 15  2  1  0
  2 20  1  0
 17  3  1  1
 22  3  1  0
  5  4  1  6
 16  4  1  6
  4 22  1  6
  7  6  2  0
  8  7  1  0
  8 23  1  6
  9 10  2  0
  9 14  1  0
  9 23  1  0
 10 11  1  0
 11 12  2  0
 12 13  1  0
 13 14  2  0
 13 21  1  0
 15 21  1  0
 18 17  1  1
 18 19  1  0
 19 20  1  6
 20 24  2  0
 21 25  2  0
M  END
$$$$
