
     RDKit          3D

 25 28  0  0  0  0  0  0  0  0999 V2000
  -21.4765   19.1839  -30.9650 C   0  0  0  0  0  0  0  0  0  0  0  0
  -22.4554   20.3031  -32.6027 C   0  0  0  0  0  0  0  0  0  0  0  0
  -21.4586   19.4966  -33.1213 C   0  0  0  0  0  0  0  0  0  0  0  0
  -19.7681   17.8942  -32.2453 C   0  0  1  0  0  0  0  0  0  0  0  0
  -19.9071   16.8620  -33.3090 C   0  0  0  0  0  0  0  0  0  0  0  0
  -16.9700   15.4844  -29.3278 C   0  0  0  0  0  0  0  0  0  0  0  0
  -18.2164   15.7593  -29.6124 C   0  0  0  0  0  0  0  0  0  0  0  0
  -19.1249   16.3720  -28.6350 C   0  0  0  0  0  0  0  0  0  0  0  0
  -20.8024   18.2090  -28.6273 C   0  0  0  0  0  0  0  0  0  0  0  0
  -21.0985   18.2545  -27.2832 C   0  0  0  0  0  0  0  0  0  0  0  0
  -22.1065   19.0674  -26.7508 C   0  0  0  0  0  0  0  0  0  0  0  0
  -22.8266   19.8507  -27.6194 C   0  0  0  0  0  0  0  0  0  0  0  0
  -22.5278   19.8031  -28.9678 C   0  0  0  0  0  0  0  0  0  0  0  0
  -21.5358   19.0077  -29.5150 C   0  0  0  0  0  0  0  0  0  0  0  0
  -22.4565   20.0984  -31.2528 C   0  0  0  0  0  0  0  0  0  0  0  0
  -18.4012   18.5591  -32.4587 C   0  0  0  0  0  0  0  0  0  0  0  0
  -21.3268   19.5840  -34.6057 C   0  0  0  0  0  0  0  0  0  0  0  0
  -22.7605   19.5519  -35.1840 C   0  0  0  0  0  0  0  0  0  0  0  0
  -23.3470   20.9114  -34.9388 C   0  0  0  0  0  0  0  0  0  0  0  0
  -23.2709   21.1698  -33.4674 C   0  0  0  0  0  0  0  0  0  0  0  0
  -23.1669   20.5418  -30.0591 C   0  0  0  0  0  0  0  0  0  0  0  0
  -20.8548   18.8105  -32.1231 N   0  0  0  0  0  0  0  0  0  0  0  0
  -19.8449   17.4289  -29.1052 O   0  0  0  0  0  0  0  0  0  0  0  0
  -23.8840   22.1087  -32.9404 O   0  0  0  0  0  0  0  0  0  0  0  0
  -24.1189   21.3739  -29.9752 O   0  0  0  0  0  0  0  0  0  0  0  0
 14  1  1  0
  1 15  2  0
  1 22  1  0
  3  2  2  0
 15  2  1  0
  2 20  1  0
 17  3  1  1
 22  3  1  0
  5  4  1  6
 16  4  1  6
  4 22  1  6
  7  6  2  0
  8  7  1  0
  8 23  1  6
  9 10  2  0
  9 14  1  0
  9 23  1  0
 10 11  1  0
 11 12  2  0
 12 13  1  0
 13 14  2  0
 13 21  1  0
 15 21  1  0
 18 17  1  1
 18 19  1  0
 19 20  1  6
 20 24  2  0
 21 25  2  0
M  END
$$$$
