
     RDKit          3D

 25 28  0  0  0  0  0  0  0  0999 V2000
  -20.4753   18.2082  -29.5451 C   0  0  0  0  0  0  0  0  0  0  0  0
  -18.9953   16.7056  -28.8576 C   0  0  0  0  0  0  0  0  0  0  0  0
  -18.9604   16.7979  -30.1978 C   0  0  0  0  0  0  0  0  0  0  0  0
  -20.0305   18.0098  -32.0291 C   0  0  1  0  0  0  0  0  0  0  0  0
  -19.5249   16.9518  -32.9517 C   0  0  0  0  0  0  0  0  0  0  0  0
  -22.2828   20.3518  -34.3980 C   0  0  0  0  0  0  0  0  0  0  0  0
  -22.3368   21.1771  -33.3695 C   0  0  0  0  0  0  0  0  0  0  0  0
  -22.9967   20.8916  -32.0774 C   0  0  0  0  0  0  0  0  0  0  0  0
  -22.3231   20.0290  -29.8232 C   0  0  0  0  0  0  0  0  0  0  0  0
  -23.2092   20.8217  -29.1085 C   0  0  0  0  0  0  0  0  0  0  0  0
  -23.2782   20.7579  -27.7212 C   0  0  0  0  0  0  0  0  0  0  0  0
  -22.4549   19.8945  -27.0416 C   0  0  0  0  0  0  0  0  0  0  0  0
  -21.5708   19.1014  -27.7357 C   0  0  0  0  0  0  0  0  0  0  0  0
  -21.5075   19.1706  -29.1212 C   0  0  0  0  0  0  0  0  0  0  0  0
  -19.9523   17.5924  -28.4016 C   0  0  0  0  0  0  0  0  0  0  0  0
  -21.4135   18.4940  -32.4159 C   0  0  0  0  0  0  0  0  0  0  0  0
  -17.9927   15.9252  -30.9202 C   0  0  0  0  0  0  0  0  0  0  0  0
  -17.7793   14.6146  -30.2001 C   0  0  0  0  0  0  0  0  0  0  0  0
  -17.3516   14.7974  -28.7797 C   0  0  0  0  0  0  0  0  0  0  0  0
  -18.1535   15.8130  -28.0601 C   0  0  0  0  0  0  0  0  0  0  0  0
  -20.6182   18.1286  -27.2307 C   0  0  0  0  0  0  0  0  0  0  0  0
  -19.8754   17.7271  -30.6248 N   0  0  0  0  0  0  0  0  0  0  0  0
  -22.3180   20.1492  -31.1641 O   0  0  0  0  0  0  0  0  0  0  0  0
  -18.1162   15.9091  -26.8109 O   0  0  0  0  0  0  0  0  0  0  0  0
  -20.3830   17.7882  -26.0440 O   0  0  0  0  0  0  0  0  0  0  0  0
 14  1  1  0
  1 15  2  0
  1 22  1  0
  3  2  2  0
 15  2  1  0
  2 20  1  0
  3 17  1  0
 22  3  1  0
  4  5  1  6
  4 16  1  0
 22  4  1  0
  7  6  2  0
  8  7  1  0
 23  8  1  0
  9 10  2  0
  9 14  1  0
  9 23  1  0
 10 11  1  0
 11 12  2  0
 12 13  1  0
 13 14  2  0
 13 21  1  0
 15 21  1  0
 17 18  1  0
 18 19  1  0
 19 20  1  0
 20 24  2  0
 21 25  2  0
M  END
$$$$
