
     RDKit          3D

 25 28  0  0  0  0  0  0  0  0999 V2000
  -20.4973   18.0413  -29.7019 C   0  0  0  0  0  0  0  0  0  0  0  0
  -19.0819   16.4681  -29.0580 C   0  0  0  0  0  0  0  0  0  0  0  0
  -19.0289   16.6072  -30.4331 C   0  0  0  0  0  0  0  0  0  0  0  0
  -20.1496   17.9912  -32.1713 C   0  0  1  0  0  0  0  0  0  0  0  0
  -18.9852   17.9483  -33.0978 C   0  0  0  0  0  0  0  0  0  0  0  0
  -22.4444   19.8324  -34.5217 C   0  0  0  0  0  0  0  0  0  0  0  0
  -22.9839   20.0048  -33.3430 C   0  0  0  0  0  0  0  0  0  0  0  0
  -22.4970   19.3011  -32.1497 C   0  0  0  0  0  0  0  0  0  0  0  0
  -22.2925   19.9502  -29.7569 C   0  0  0  0  0  0  0  0  0  0  0  0
  -23.1175   20.7155  -28.9632 C   0  0  0  0  0  0  0  0  0  0  0  0
  -23.1761   20.5814  -27.5707 C   0  0  0  0  0  0  0  0  0  0  0  0
  -22.3684   19.6400  -26.9809 C   0  0  0  0  0  0  0  0  0  0  0  0
  -21.5411   18.8734  -27.7796 C   0  0  0  0  0  0  0  0  0  0  0  0
  -21.4679   18.9890  -29.1570 C   0  0  0  0  0  0  0  0  0  0  0  0
  -20.0043   17.3708  -28.6125 C   0  0  0  0  0  0  0  0  0  0  0  0
  -21.2892   17.2346  -32.8677 C   0  0  0  0  0  0  0  0  0  0  0  0
  -18.0470   15.6957  -31.0914 C   0  0  0  0  0  0  0  0  0  0  0  0
  -16.7596   15.7329  -30.2357 C   0  0  0  0  0  0  0  0  0  0  0  0
  -17.0381   14.9051  -29.0151 C   0  0  0  0  0  0  0  0  0  0  0  0
  -18.2478   15.4834  -28.3520 C   0  0  0  0  0  0  0  0  0  0  0  0
  -20.6035   17.8278  -27.3641 C   0  0  0  0  0  0  0  0  0  0  0  0
  -19.8945   17.5676  -30.8330 N   0  0  0  0  0  0  0  0  0  0  0  0
  -22.2546   20.0992  -31.0723 O   0  0  0  0  0  0  0  0  0  0  0  0
  -18.5786   15.1546  -27.2041 O   0  0  0  0  0  0  0  0  0  0  0  0
  -20.3727   17.4205  -26.1866 O   0  0  0  0  0  0  0  0  0  0  0  0
 14  1  1  0
  1 15  2  0
  1 22  1  0
  3  2  2  0
 15  2  1  0
  2 20  1  0
 17  3  1  1
 22  3  1  0
  5  4  1  6
 16  4  1  6
  4 22  1  1
  7  6  2  0
  8  7  1  0
  8 23  1  6
  9 10  2  0
  9 14  1  0
  9 23  1  0
 10 11  1  0
 11 12  2  0
 12 13  1  0
 13 14  2  0
 13 21  1  0
 15 21  1  0
 18 17  1  1
 18 19  1  0
 19 20  1  6
 20 24  2  0
 21 25  2  0
M  END
$$$$
