
     RDKit          3D

 25 28  0  0  0  0  0  0  0  0999 V2000
  -22.0269   19.4064  -30.9845 C   0  0  0  0  0  0  0  0  0  0  0  0
  -23.3254   20.3655  -32.5059 C   0  0  0  0  0  0  0  0  0  0  0  0
  -22.3428   19.6796  -33.1141 C   0  0  0  0  0  0  0  0  0  0  0  0
  -20.4073   18.2892  -32.5770 C   0  0  1  0  0  0  0  0  0  0  0  0
  -19.0774   18.9478  -32.4230 C   0  0  0  0  0  0  0  0  0  0  0  0
  -18.3875   15.1866  -30.4184 C   0  0  0  0  0  0  0  0  0  0  0  0
  -17.9739   16.3446  -29.9389 C   0  0  0  0  0  0  0  0  0  0  0  0
  -18.7170   17.1867  -28.9771 C   0  0  0  0  0  0  0  0  0  0  0  0
  -20.8391   18.5124  -28.8404 C   0  0  0  0  0  0  0  0  0  0  0  0
  -20.9029   18.5272  -27.4547 C   0  0  0  0  0  0  0  0  0  0  0  0
  -21.9025   19.2240  -26.7850 C   0  0  0  0  0  0  0  0  0  0  0  0
  -22.8468   19.9125  -27.5057 C   0  0  0  0  0  0  0  0  0  0  0  0
  -22.7973   19.9080  -28.8805 C   0  0  0  0  0  0  0  0  0  0  0  0
  -21.7961   19.2097  -29.5425 C   0  0  0  0  0  0  0  0  0  0  0  0
  -23.1584   20.2158  -31.1421 C   0  0  0  0  0  0  0  0  0  0  0  0
  -20.4144   16.8772  -32.0268 C   0  0  0  0  0  0  0  0  0  0  0  0
  -22.3163   19.6950  -34.6037 C   0  0  0  0  0  0  0  0  0  0  0  0
  -22.8482   20.9961  -35.1569 C   0  0  0  0  0  0  0  0  0  0  0  0
  -24.2202   21.3188  -34.6599 C   0  0  0  0  0  0  0  0  0  0  0  0
  -24.3675   21.1232  -33.1996 C   0  0  0  0  0  0  0  0  0  0  0  0
  -23.6798   20.5579  -29.8333 C   0  0  0  0  0  0  0  0  0  0  0  0
  -21.5386   19.0855  -32.1743 N   0  0  0  0  0  0  0  0  0  0  0  0
  -19.8401   17.8148  -29.4130 O   0  0  0  0  0  0  0  0  0  0  0  0
  -25.3492   21.5885  -32.5743 O   0  0  0  0  0  0  0  0  0  0  0  0
  -24.6910   21.2733  -29.6205 O   0  0  0  0  0  0  0  0  0  0  0  0
 14  1  1  0
  1 15  2  0
  1 22  1  0
  3  2  2  0
 15  2  1  0
  2 20  1  0
  3 17  1  0
 22  3  1  0
  4  5  1  1
  4 16  1  0
 22  4  1  0
  7  6  2  0
  8  7  1  0
 23  8  1  0
  9 10  2  0
  9 14  1  0
  9 23  1  0
 10 11  1  0
 11 12  2  0
 12 13  1  0
 13 14  2  0
 13 21  1  0
 15 21  1  0
 17 18  1  0
 18 19  1  0
 19 20  1  0
 20 24  2  0
 21 25  2  0
M  END
$$$$
