
     RDKit          3D

 25 28  0  0  0  0  0  0  0  0999 V2000
  -20.7601   17.9921  -29.6390 C   0  0  0  0  0  0  0  0  0  0  0  0
  -19.2673   16.5069  -28.9416 C   0  0  0  0  0  0  0  0  0  0  0  0
  -19.2200   16.6046  -30.2810 C   0  0  0  0  0  0  0  0  0  0  0  0
  -20.2875   17.8089  -32.1189 C   0  0  1  0  0  0  0  0  0  0  0  0
  -19.1925   18.6256  -32.7190 C   0  0  0  0  0  0  0  0  0  0  0  0
  -23.3947   20.3792  -34.6423 C   0  0  0  0  0  0  0  0  0  0  0  0
  -22.7124   20.7177  -33.5645 C   0  0  0  0  0  0  0  0  0  0  0  0
  -23.2359   20.7051  -32.1817 C   0  0  0  0  0  0  0  0  0  0  0  0
  -22.6292   19.7892  -29.9295 C   0  0  0  0  0  0  0  0  0  0  0  0
  -23.5330   20.5674  -29.2211 C   0  0  0  0  0  0  0  0  0  0  0  0
  -23.6153   20.4977  -27.8348 C   0  0  0  0  0  0  0  0  0  0  0  0
  -22.7875   19.6428  -27.1499 C   0  0  0  0  0  0  0  0  0  0  0  0
  -21.8858   18.8640  -27.8377 C   0  0  0  0  0  0  0  0  0  0  0  0
  -21.8093   18.9392  -29.2222 C   0  0  0  0  0  0  0  0  0  0  0  0
  -20.2407   17.3792  -28.4923 C   0  0  0  0  0  0  0  0  0  0  0  0
  -20.6308   16.6003  -32.9664 C   0  0  0  0  0  0  0  0  0  0  0  0
  -18.2335   15.7475  -30.9966 C   0  0  0  0  0  0  0  0  0  0  0  0
  -18.0099   14.4372  -30.2790 C   0  0  0  0  0  0  0  0  0  0  0  0
  -17.5992   14.6204  -28.8537 C   0  0  0  0  0  0  0  0  0  0  0  0
  -18.4218   15.6226  -28.1388 C   0  0  0  0  0  0  0  0  0  0  0  0
  -20.9255   17.9021  -27.3264 C   0  0  0  0  0  0  0  0  0  0  0  0
  -20.1429   17.5231  -30.7141 N   0  0  0  0  0  0  0  0  0  0  0  0
  -22.6120   19.9144  -31.2698 O   0  0  0  0  0  0  0  0  0  0  0  0
  -18.3986   15.7146  -26.8889 O   0  0  0  0  0  0  0  0  0  0  0  0
  -20.6979   17.5606  -26.1385 O   0  0  0  0  0  0  0  0  0  0  0  0
 14  1  1  0
  1 15  2  0
  1 22  1  0
  3  2  2  0
 15  2  1  0
  2 20  1  0
  3 17  1  0
 22  3  1  0
  4  5  1  6
  4 16  1  0
 22  4  1  0
  7  6  2  0
  8  7  1  0
 23  8  1  0
  9 10  2  0
  9 14  1  0
  9 23  1  0
 10 11  1  0
 11 12  2  0
 12 13  1  0
 13 14  2  0
 13 21  1  0
 15 21  1  0
 17 18  1  0
 18 19  1  0
 19 20  1  0
 20 24  2  0
 21 25  2  0
M  END
$$$$
