
     RDKit          3D

 25 28  0  0  0  0  0  0  0  0999 V2000
  -22.0193   19.6303  -30.9641 C   0  0  0  0  0  0  0  0  0  0  0  0
  -23.2382   20.5973  -32.5363 C   0  0  0  0  0  0  0  0  0  0  0  0
  -22.2000   19.8937  -33.1194 C   0  0  0  0  0  0  0  0  0  0  0  0
  -20.2798   18.5075  -32.3550 C   0  0  1  0  0  0  0  0  0  0  0  0
  -20.4543   17.2895  -33.1928 C   0  0  0  0  0  0  0  0  0  0  0  0
  -17.4388   16.1758  -29.8705 C   0  0  0  0  0  0  0  0  0  0  0  0
  -18.6443   16.5018  -30.2583 C   0  0  0  0  0  0  0  0  0  0  0  0
  -19.7209   16.7936  -29.3033 C   0  0  0  0  0  0  0  0  0  0  0  0
  -21.0653   18.7894  -28.6722 C   0  0  0  0  0  0  0  0  0  0  0  0
  -21.2617   18.8327  -27.3100 C   0  0  0  0  0  0  0  0  0  0  0  0
  -22.3108   19.5418  -26.7123 C   0  0  0  0  0  0  0  0  0  0  0  0
  -23.1776   20.2210  -27.5332 C   0  0  0  0  0  0  0  0  0  0  0  0
  -22.9784   20.1757  -28.9000 C   0  0  0  0  0  0  0  0  0  0  0  0
  -21.9483   19.4820  -29.5114 C   0  0  0  0  0  0  0  0  0  0  0  0
  -23.1141   20.4246  -31.1876 C   0  0  0  0  0  0  0  0  0  0  0  0
  -19.0860   19.2732  -32.9419 C   0  0  0  0  0  0  0  0  0  0  0  0
  -22.1918   19.9611  -34.6106 C   0  0  0  0  0  0  0  0  0  0  0  0
  -23.6527   19.7582  -35.0749 C   0  0  0  0  0  0  0  0  0  0  0  0
  -24.3668   21.0502  -34.8042 C   0  0  0  0  0  0  0  0  0  0  0  0
  -24.2086   21.3490  -33.3471 C   0  0  0  0  0  0  0  0  0  0  0  0
  -23.7769   20.8144  -29.9486 C   0  0  0  0  0  0  0  0  0  0  0  0
  -21.4495   19.3013  -32.1616 N   0  0  0  0  0  0  0  0  0  0  0  0
  -20.0658   18.1086  -29.2121 O   0  0  0  0  0  0  0  0  0  0  0  0
  -24.8807   22.2266  -32.7875 O   0  0  0  0  0  0  0  0  0  0  0  0
  -24.8066   21.5384  -29.8027 O   0  0  0  0  0  0  0  0  0  0  0  0
 14  1  1  0
  1 15  2  0
  1 22  1  0
  3  2  2  0
 15  2  1  0
  2 20  1  0
 17  3  1  1
 22  3  1  0
  5  4  1  6
 16  4  1  6
  4 22  1  6
  7  6  2  0
  8  7  1  0
  8 23  1  6
  9 10  2  0
  9 14  1  0
  9 23  1  0
 10 11  1  0
 11 12  2  0
 12 13  1  0
 13 14  2  0
 13 21  1  0
 15 21  1  0
 18 17  1  1
 18 19  1  0
 19 20  1  6
 20 24  2  0
 21 25  2  0
M  END
$$$$
