
     RDKit          3D

 25 28  0  0  0  0  0  0  0  0999 V2000
  -20.4573   18.0864  -29.6172 C   0  0  0  0  0  0  0  0  0  0  0  0
  -18.8287   16.7608  -28.9021 C   0  0  0  0  0  0  0  0  0  0  0  0
  -18.8143   16.8150  -30.2447 C   0  0  0  0  0  0  0  0  0  0  0  0
  -20.0155   17.8573  -32.0990 C   0  0  1  0  0  0  0  0  0  0  0  0
  -18.9839   18.7108  -32.7574 C   0  0  0  0  0  0  0  0  0  0  0  0
  -22.2990   21.1588  -34.4178 C   0  0  0  0  0  0  0  0  0  0  0  0
  -22.4410   21.3633  -33.1217 C   0  0  0  0  0  0  0  0  0  0  0  0
  -23.1974   20.4928  -32.1962 C   0  0  0  0  0  0  0  0  0  0  0  0
  -22.4803   19.7044  -29.9282 C   0  0  0  0  0  0  0  0  0  0  0  0
  -23.4354   20.4263  -29.2275 C   0  0  0  0  0  0  0  0  0  0  0  0
  -23.4861   20.3985  -27.8382 C   0  0  0  0  0  0  0  0  0  0  0  0
  -22.5749   19.6428  -27.1426 C   0  0  0  0  0  0  0  0  0  0  0  0
  -21.6217   18.9210  -27.8228 C   0  0  0  0  0  0  0  0  0  0  0  0
  -21.5771   18.9536  -29.2104 C   0  0  0  0  0  0  0  0  0  0  0  0
  -19.8659   17.5613  -28.4618 C   0  0  0  0  0  0  0  0  0  0  0  0
  -20.3090   16.5994  -32.8916 C   0  0  0  0  0  0  0  0  0  0  0  0
  -17.7702   16.0215  -30.9518 C   0  0  0  0  0  0  0  0  0  0  0  0
  -17.4207   14.7614  -30.1955 C   0  0  0  0  0  0  0  0  0  0  0  0
  -17.0017   15.0294  -28.7862 C   0  0  0  0  0  0  0  0  0  0  0  0
  -17.8953   15.9816  -28.0880 C   0  0  0  0  0  0  0  0  0  0  0  0
  -20.5723   18.0640  -27.2999 C   0  0  0  0  0  0  0  0  0  0  0  0
  -19.8212   17.6347  -30.6888 N   0  0  0  0  0  0  0  0  0  0  0  0
  -22.4984   19.7833  -31.2721 O   0  0  0  0  0  0  0  0  0  0  0  0
  -17.8574   16.1192  -26.8427 O   0  0  0  0  0  0  0  0  0  0  0  0
  -20.2944   17.7854  -26.1063 O   0  0  0  0  0  0  0  0  0  0  0  0
 14  1  1  0
  1 15  2  0
  1 22  1  0
  3  2  2  0
 15  2  1  0
  2 20  1  0
  3 17  1  0
 22  3  1  0
  4  5  1  6
  4 16  1  0
 22  4  1  0
  7  6  2  0
  8  7  1  0
 23  8  1  0
  9 10  2  0
  9 14  1  0
  9 23  1  0
 10 11  1  0
 11 12  2  0
 12 13  1  0
 13 14  2  0
 13 21  1  0
 15 21  1  0
 17 18  1  0
 18 19  1  0
 19 20  1  0
 20 24  2  0
 21 25  2  0
M  END
$$$$
