
     RDKit          3D

 25 28  0  0  0  0  0  0  0  0999 V2000
  -20.3684   18.1938  -29.9057 C   0  0  0  0  0  0  0  0  0  0  0  0
  -18.9130   16.7084  -29.1518 C   0  0  0  0  0  0  0  0  0  0  0  0
  -18.8921   16.7200  -30.5348 C   0  0  0  0  0  0  0  0  0  0  0  0
  -20.0734   17.9198  -32.3672 C   0  0  1  0  0  0  0  0  0  0  0  0
  -21.5157   17.9275  -32.7353 C   0  0  0  0  0  0  0  0  0  0  0  0
  -22.6794   21.5961  -34.6284 C   0  0  0  0  0  0  0  0  0  0  0  0
  -22.3129   20.7364  -33.7138 C   0  0  0  0  0  0  0  0  0  0  0  0
  -22.9365   20.6948  -32.3851 C   0  0  0  0  0  0  0  0  0  0  0  0
  -22.1966   20.0624  -30.0956 C   0  0  0  0  0  0  0  0  0  0  0  0
  -23.0171   20.8857  -29.3573 C   0  0  0  0  0  0  0  0  0  0  0  0
  -23.0434   20.8806  -27.9574 C   0  0  0  0  0  0  0  0  0  0  0  0
  -22.2072   20.0102  -27.3018 C   0  0  0  0  0  0  0  0  0  0  0  0
  -21.3845   19.1852  -28.0450 C   0  0  0  0  0  0  0  0  0  0  0  0
  -21.3430   19.1735  -29.4286 C   0  0  0  0  0  0  0  0  0  0  0  0
  -19.8407   17.6348  -28.7706 C   0  0  0  0  0  0  0  0  0  0  0  0
  -19.4886   19.2480  -32.8670 C   0  0  0  0  0  0  0  0  0  0  0  0
  -17.9093   15.7661  -31.1285 C   0  0  0  0  0  0  0  0  0  0  0  0
  -16.6046   15.9017  -30.3097 C   0  0  0  0  0  0  0  0  0  0  0  0
  -16.8425   15.1868  -29.0117 C   0  0  0  0  0  0  0  0  0  0  0  0
  -18.0472   15.8061  -28.3772 C   0  0  0  0  0  0  0  0  0  0  0  0
  -20.4205   18.1968  -27.5564 C   0  0  0  0  0  0  0  0  0  0  0  0
  -19.7823   17.6261  -31.0017 N   0  0  0  0  0  0  0  0  0  0  0  0
  -22.1896   20.0891  -31.4197 O   0  0  0  0  0  0  0  0  0  0  0  0
  -18.3476   15.5805  -27.1965 O   0  0  0  0  0  0  0  0  0  0  0  0
  -20.1575   17.9040  -26.3519 O   0  0  0  0  0  0  0  0  0  0  0  0
 14  1  1  0
  1 15  2  0
  1 22  1  0
  3  2  2  0
 15  2  1  0
  2 20  1  0
 17  3  1  1
 22  3  1  0
  5  4  1  6
 16  4  1  6
  4 22  1  1
  7  6  2  0
  8  7  1  0
  8 23  1  6
  9 10  2  0
  9 14  1  0
  9 23  1  0
 10 11  1  0
 11 12  2  0
 12 13  1  0
 13 14  2  0
 13 21  1  0
 15 21  1  0
 18 17  1  1
 18 19  1  0
 19 20  1  6
 20 24  2  0
 21 25  2  0
M  END
$$$$
