
     RDKit          3D

 42 45  0  0  0  0  0  0  0  0999 V2000
   67.8605   54.5146   14.5606 C   0  0  0  0  0  0  0  0  0  0  0  0
   70.1729   56.1661   15.2862 C   0  0  0  0  0  0  0  0  0  0  0  0
   72.5661   59.0101   17.5878 C   0  0  0  0  0  0  0  0  0  0  0  0
   75.9356   60.3681   18.4180 C   0  0  0  0  0  0  0  0  0  0  0  0
   74.0481   60.5209   19.8025 C   0  0  1  0  0  0  0  0  0  0  0  0
   72.5568   60.5650   19.7161 C   0  0  0  0  0  0  0  0  0  0  0  0
   72.7871   50.4597   13.4633 C   0  0  0  0  0  0  0  0  0  0  0  0
   72.2597   50.7951   14.6977 C   0  0  0  0  0  0  0  0  0  0  0  0
   72.1108   52.1034   15.1039 C   0  0  0  0  0  0  0  0  0  0  0  0
   72.5137   53.0924   14.2212 C   0  0  0  0  0  0  0  0  0  0  0  0
   73.0423   52.7952   12.9856 C   0  0  0  0  0  0  0  0  0  0  0  0
   73.1735   51.4620   12.6183 C   0  0  0  0  0  0  0  0  0  0  0  0
   70.0474   54.7448   13.3097 C   0  0  0  0  0  0  0  0  0  0  0  0
   68.5633   54.9045   13.3012 C   0  0  1  0  0  0  0  0  0  0  0  0
   68.0020   54.2990   12.0499 C   0  0  0  0  0  0  0  0  0  0  0  0
   70.2276   57.6589   14.9111 C   0  0  2  0  0  0  0  0  0  0  0  0
   70.5568   58.4118   16.1529 C   0  0  2  0  0  0  0  0  0  0  0  0
   74.6655   59.5831   18.7737 C   0  0  1  0  0  0  0  0  0  0  0  0
   74.4736   61.8734   19.2660 C   0  0  1  0  0  0  0  0  0  0  0  0
   72.3107   61.9881   19.2089 C   0  0  0  0  0  0  0  0  0  0  0  0
   69.8148   59.7211   16.2939 C   0  0  0  0  0  0  0  0  0  0  0  0
   69.3311   59.8082   17.7242 C   0  0  0  0  0  0  0  0  0  0  0  0
   69.8182   60.7643   18.5829 C   0  0  0  0  0  0  0  0  0  0  0  0
   69.3889   60.8585   19.9009 C   0  0  0  0  0  0  0  0  0  0  0  0
   68.4540   59.9495   20.3057 C   0  0  0  0  0  0  0  0  0  0  0  0
   67.9417   58.9765   19.4766 C   0  0  0  0  0  0  0  0  0  0  0  0
   68.3941   58.9190   18.1802 C   0  0  0  0  0  0  0  0  0  0  0  0
   72.9362   49.0400   13.0261 C   0  0  2  0  0  0  0  0  0  0  0  0
   72.0902   48.8486   11.7631 C   0  0  0  0  0  0  0  0  0  0  0  0
   67.9102   52.8164   12.0246 C   0  0  0  0  0  0  0  0  0  0  0  0
   66.7033   55.3640   14.9597 C   0  0  0  0  0  0  0  0  0  0  0  0
   70.7907   55.3637   14.3094 N   0  0  0  0  0  0  0  0  0  0  0  0
   71.9745   58.5256   16.3925 N   0  0  0  0  0  0  0  0  0  0  0  0
   73.4217   55.5464   14.0033 O   0  0  0  0  0  0  0  0  0  0  0  0
   72.5114   54.8887   16.1995 O   0  0  0  0  0  0  0  0  0  0  0  0
   69.0270   57.9474   14.3197 O   0  0  0  0  0  0  0  0  0  0  0  0
   71.9016   58.9174   18.6548 O   0  0  0  0  0  0  0  0  0  0  0  0
   73.8125   59.5695   17.6509 O   0  0  0  0  0  0  0  0  0  0  0  0
   75.6956   61.6874   18.7032 O   0  0  0  0  0  0  0  0  0  0  0  0
   73.4403   62.1536   18.3767 O   0  0  0  0  0  0  0  0  0  0  0  0
   72.3960   48.1896   14.0095 O   0  0  0  0  0  0  0  0  0  0  0  0
   72.3316   54.7738   14.6899 S   0  0  2  0  0  6  0  0  0  0  0  0
 14  1  1  1
  1 31  1  0
  2 16  1  0
 32  2  1  0
 33  3  1  0
  3 37  2  0
  3 38  1  0
 18  4  1  0
  4 39  1  0
  5  6  1  6
 18  5  1  0
  5 19  1  0
  6 20  1  0
  8  7  2  0
 12  7  1  0
  7 28  1  0
  9  8  1  0
 10  9  2  0
 10 11  1  0
 42 10  1  0
 11 12  2  0
 13 14  1  0
 32 13  1  0
 14 15  1  0
 15 30  1  0
 16 17  1  0
 16 36  1  1
 17 21  1  6
 17 33  1  0
 18 38  1  6
 19 39  1  6
 19 40  1  0
 40 20  1  0
 21 22  1  0
 22 23  2  0
 22 27  1  0
 23 24  1  0
 24 25  2  0
 26 25  1  0
 27 26  2  0
 28 29  1  6
 28 41  1  0
 42 32  1  1
 42 34  2  0
 42 35  2  0
M  END
$$$$
