
     RDKit          3D

 42 45  0  0  0  0  0  0  0  0999 V2000
   72.9764   53.1385   13.1738 C   0  0  0  0  0  0  0  0  0  0  0  0
   71.5097   56.4654   15.4236 C   0  0  0  0  0  0  0  0  0  0  0  0
   72.5015   59.5008   17.8915 C   0  0  0  0  0  0  0  0  0  0  0  0
   75.6437   60.9920   19.2240 C   0  0  0  0  0  0  0  0  0  0  0  0
   73.5508   61.2978   20.2384 C   0  0  1  0  0  0  0  0  0  0  0  0
   72.0997   61.3655   19.8877 C   0  0  0  0  0  0  0  0  0  0  0  0
   67.0287   52.0311   13.0829 C   0  0  0  0  0  0  0  0  0  0  0  0
   66.8751   53.3897   12.8706 C   0  0  0  0  0  0  0  0  0  0  0  0
   67.5520   54.3322   13.6140 C   0  0  0  0  0  0  0  0  0  0  0  0
   68.4076   53.8687   14.6002 C   0  0  0  0  0  0  0  0  0  0  0  0
   68.5847   52.5247   14.8387 C   0  0  0  0  0  0  0  0  0  0  0  0
   67.8817   51.6105   14.0644 C   0  0  0  0  0  0  0  0  0  0  0  0
   71.1541   54.8263   13.6546 C   0  0  0  0  0  0  0  0  0  0  0  0
   72.5888   54.5729   13.3292 C   0  0  1  0  0  0  0  0  0  0  0  0
   73.4598   55.3669   14.2556 C   0  0  0  0  0  0  0  0  0  0  0  0
   70.8233   57.7896   15.0397 C   0  0  2  0  0  0  0  0  0  0  0  0
   70.7521   58.6209   16.2731 C   0  0  2  0  0  0  0  0  0  0  0  0
   74.3045   60.2656   19.4103 C   0  0  1  0  0  0  0  0  0  0  0  0
   74.1100   62.5922   19.6820 C   0  0  1  0  0  0  0  0  0  0  0  0
   71.9954   62.7468   19.2363 C   0  0  0  0  0  0  0  0  0  0  0  0
   69.5468   59.5310   16.3334 C   0  0  0  0  0  0  0  0  0  0  0  0
   69.2052   59.7230   17.7941 C   0  0  0  0  0  0  0  0  0  0  0  0
   69.1025   60.9795   18.3414 C   0  0  0  0  0  0  0  0  0  0  0  0
   68.7929   61.1766   19.6814 C   0  0  0  0  0  0  0  0  0  0  0  0
   68.5945   60.0549   20.4342 C   0  0  0  0  0  0  0  0  0  0  0  0
   68.6886   58.7794   19.9238 C   0  0  0  0  0  0  0  0  0  0  0  0
   68.9971   58.6298   18.5929 C   0  0  0  0  0  0  0  0  0  0  0  0
   66.2994   51.0156   12.2669 C   0  0  2  0  0  0  0  0  0  0  0  0
   67.2929   49.9075   11.9030 C   0  0  0  0  0  0  0  0  0  0  0  0
   73.8794   54.6831   15.5059 C   0  0  0  0  0  0  0  0  0  0  0  0
   72.2909   52.3845   12.0868 C   0  0  0  0  0  0  0  0  0  0  0  0
   70.8236   55.3551   14.8980 N   0  0  0  0  0  0  0  0  0  0  0  0
   71.9924   59.2879   16.5843 N   0  0  0  0  0  0  0  0  0  0  0  0
   69.3957   54.4749   16.9561 O   0  0  0  0  0  0  0  0  0  0  0  0
   68.5242   56.3433   15.6017 O   0  0  0  0  0  0  0  0  0  0  0  0
   69.6303   57.4469   14.4621 O   0  0  0  0  0  0  0  0  0  0  0  0
   71.8460   59.0369   18.8629 O   0  0  0  0  0  0  0  0  0  0  0  0
   73.6597   60.1772   18.1594 O   0  0  0  0  0  0  0  0  0  0  0  0
   75.4040   62.3351   19.3593 O   0  0  0  0  0  0  0  0  0  0  0  0
   73.2575   62.8195   18.6057 O   0  0  0  0  0  0  0  0  0  0  0  0
   65.8829   51.6013   11.0562 O   0  0  0  0  0  0  0  0  0  0  0  0
   69.3009   55.0318   15.5641 S   0  0  2  0  0  6  0  0  0  0  0  0
 14  1  1  1
  1 31  1  0
  2 16  1  0
 32  2  1  0
 33  3  1  0
  3 37  2  0
  3 38  1  0
 18  4  1  0
  4 39  1  0
  5  6  1  6
 18  5  1  0
  5 19  1  0
  6 20  1  0
  8  7  2  0
 12  7  1  0
  7 28  1  0
  9  8  1  0
 10  9  2  0
 10 11  1  0
 42 10  1  0
 11 12  2  0
 13 14  1  0
 32 13  1  0
 14 15  1  0
 15 30  1  0
 16 17  1  0
 16 36  1  1
 17 21  1  6
 17 33  1  0
 18 38  1  6
 19 39  1  6
 19 40  1  0
 40 20  1  0
 21 22  1  0
 22 23  2  0
 22 27  1  0
 23 24  1  0
 24 25  2  0
 26 25  1  0
 27 26  2  0
 28 29  1  6
 28 41  1  0
 42 32  1  6
 42 34  2  0
 42 35  2  0
M  END
$$$$
