
     RDKit          3D

 42 45  0  0  0  0  0  0  0  0999 V2000
   73.1285   53.4162   13.9090 C   0  0  0  0  0  0  0  0  0  0  0  0
   69.9517   56.5410   14.7447 C   0  0  0  0  0  0  0  0  0  0  0  0
   72.4392   59.8733   17.1111 C   0  0  0  0  0  0  0  0  0  0  0  0
   75.7408   60.1766   18.7583 C   0  0  0  0  0  0  0  0  0  0  0  0
   73.8031   60.8345   19.9052 C   0  0  1  0  0  0  0  0  0  0  0  0
   72.4536   61.4213   19.6445 C   0  0  0  0  0  0  0  0  0  0  0  0
   66.5396   51.7615   13.2265 C   0  0  0  0  0  0  0  0  0  0  0  0
   66.3618   53.1283   13.1056 C   0  0  0  0  0  0  0  0  0  0  0  0
   67.4223   54.0062   13.0452 C   0  0  0  0  0  0  0  0  0  0  0  0
   68.6972   53.4679   13.1108 C   0  0  0  0  0  0  0  0  0  0  0  0
   68.9111   52.1135   13.2309 C   0  0  0  0  0  0  0  0  0  0  0  0
   67.8119   51.2661   13.2878 C   0  0  0  0  0  0  0  0  0  0  0  0
   71.4595   54.7088   15.3033 C   0  0  0  0  0  0  0  0  0  0  0  0
   72.8338   54.6319   14.7259 C   0  0  1  0  0  0  0  0  0  0  0  0
   73.8424   54.9374   15.7921 C   0  0  0  0  0  0  0  0  0  0  0  0
   71.0942   57.5090   15.1053 C   0  0  2  0  0  0  0  0  0  0  0  0
   70.8165   58.0253   16.4742 C   0  0  2  0  0  0  0  0  0  0  0  0
   74.2389   59.8646   18.8150 C   0  0  1  0  0  0  0  0  0  0  0  0
   74.7465   61.9965   19.6649 C   0  0  1  0  0  0  0  0  0  0  0  0
   72.7945   62.8866   19.3623 C   0  0  0  0  0  0  0  0  0  0  0  0
   69.6326   58.9619   16.5504 C   0  0  0  0  0  0  0  0  0  0  0  0
   69.3461   59.2008   18.0160 C   0  0  0  0  0  0  0  0  0  0  0  0
   69.2400   58.1538   18.8999 C   0  0  0  0  0  0  0  0  0  0  0  0
   68.9741   58.3524   20.2491 C   0  0  0  0  0  0  0  0  0  0  0  0
   68.8217   59.6462   20.6580 C   0  0  0  0  0  0  0  0  0  0  0  0
   68.9200   60.7221   19.8040 C   0  0  0  0  0  0  0  0  0  0  0  0
   69.1841   60.4805   18.4772 C   0  0  0  0  0  0  0  0  0  0  0  0
   65.3859   50.8155   13.2815 C   0  0  2  0  0  0  0  0  0  0  0  0
   65.6723   49.6717   12.3031 C   0  0  0  0  0  0  0  0  0  0  0  0
   75.1484   54.2390   15.6768 C   0  0  0  0  0  0  0  0  0  0  0  0
   73.1174   52.1153   14.6354 C   0  0  0  0  0  0  0  0  0  0  0  0
   70.4279   55.2342   14.5321 N   0  0  0  0  0  0  0  0  0  0  0  0
   71.9909   58.5274   17.1440 N   0  0  0  0  0  0  0  0  0  0  0  0
   69.7681   55.5840   11.9842 O   0  0  0  0  0  0  0  0  0  0  0  0
   71.3022   53.7485   12.5861 O   0  0  0  0  0  0  0  0  0  0  0  0
   71.1404   58.4357   14.0986 O   0  0  0  0  0  0  0  0  0  0  0  0
   71.6808   60.7353   16.5912 O   0  0  0  0  0  0  0  0  0  0  0  0
   73.6425   60.2900   17.6101 O   0  0  0  0  0  0  0  0  0  0  0  0
   75.9131   61.4509   19.2335 O   0  0  0  0  0  0  0  0  0  0  0  0
   74.0413   62.7312   18.7164 O   0  0  0  0  0  0  0  0  0  0  0  0
   64.2265   51.4659   12.8176 O   0  0  0  0  0  0  0  0  0  0  0  0
   70.0792   54.5461   13.0248 S   0  0  2  0  0  6  0  0  0  0  0  0
 14  1  1  1
  1 31  1  0
  2 16  1  0
 32  2  1  0
 33  3  1  0
  3 37  2  0
  3 38  1  0
 18  4  1  0
  4 39  1  0
  5  6  1  6
 18  5  1  0
  5 19  1  0
  6 20  1  0
  8  7  2  0
 12  7  1  0
  7 28  1  0
  9  8  1  0
 10  9  2  0
 10 11  1  0
 42 10  1  0
 11 12  2  0
 13 14  1  0
 32 13  1  0
 14 15  1  0
 15 30  1  0
 16 17  1  0
 16 36  1  6
 17 21  1  6
 17 33  1  0
 18 38  1  6
 19 39  1  6
 19 40  1  0
 40 20  1  0
 21 22  1  0
 22 23  2  0
 22 27  1  0
 23 24  1  0
 24 25  2  0
 26 25  1  0
 27 26  2  0
 28 29  1  6
 28 41  1  0
 42 32  1  1
 42 34  2  0
 42 35  2  0
M  END
$$$$
