
     RDKit          3D

 42 45  0  0  0  0  0  0  0  0999 V2000
   69.1907   55.8457   18.3142 C   0  0  0  0  0  0  0  0  0  0  0  0
   71.5050   56.8780   15.0894 C   0  0  0  0  0  0  0  0  0  0  0  0
   72.5975   59.2195   17.9563 C   0  0  0  0  0  0  0  0  0  0  0  0
   76.0939   60.2610   18.6649 C   0  0  0  0  0  0  0  0  0  0  0  0
   74.3499   60.7251   20.1636 C   0  0  1  0  0  0  0  0  0  0  0  0
   72.8834   61.0124   20.1709 C   0  0  0  0  0  0  0  0  0  0  0  0
   68.4417   51.8740   11.9983 C   0  0  0  0  0  0  0  0  0  0  0  0
   68.8280   53.0869   11.4562 C   0  0  0  0  0  0  0  0  0  0  0  0
   69.7617   53.8999   12.0613 C   0  0  0  0  0  0  0  0  0  0  0  0
   70.3126   53.4570   13.2530 C   0  0  0  0  0  0  0  0  0  0  0  0
   69.9519   52.2561   13.8206 C   0  0  0  0  0  0  0  0  0  0  0  0
   69.0067   51.4691   13.1751 C   0  0  0  0  0  0  0  0  0  0  0  0
   69.8180   55.3261   15.9190 C   0  0  0  0  0  0  0  0  0  0  0  0
   69.3770   56.3438   16.9180 C   0  0  1  0  0  0  0  0  0  0  0  0
   68.2208   57.1206   16.3639 C   0  0  0  0  0  0  0  0  0  0  0  0
   70.5530   58.0863   15.1657 C   0  0  2  0  0  0  0  0  0  0  0  0
   70.5675   58.5683   16.5746 C   0  0  2  0  0  0  0  0  0  0  0  0
   74.7383   59.6956   19.1107 C   0  0  1  0  0  0  0  0  0  0  0  0
   74.9549   61.9879   19.5830 C   0  0  1  0  0  0  0  0  0  0  0  0
   72.8407   62.4551   19.6610 C   0  0  0  0  0  0  0  0  0  0  0  0
   69.2477   59.1353   17.0449 C   0  0  0  0  0  0  0  0  0  0  0  0
   69.5297   59.9516   18.2865 C   0  0  0  0  0  0  0  0  0  0  0  0
   69.4337   59.3961   19.5399 C   0  0  0  0  0  0  0  0  0  0  0  0
   69.6854   60.1301   20.6924 C   0  0  0  0  0  0  0  0  0  0  0  0
   70.0347   61.4387   20.5195 C   0  0  0  0  0  0  0  0  0  0  0  0
   70.1413   62.0321   19.2814 C   0  0  0  0  0  0  0  0  0  0  0  0
   69.8834   61.2696   18.1676 C   0  0  0  0  0  0  0  0  0  0  0  0
   67.4365   50.9939   11.3319 C   0  0  2  0  0  0  0  0  0  0  0  0
   66.2882   50.7645   12.3199 C   0  0  0  0  0  0  0  0  0  0  0  0
   67.5274   58.0286   17.3135 C   0  0  0  0  0  0  0  0  0  0  0  0
   68.1210   54.8279   18.5137 C   0  0  0  0  0  0  0  0  0  0  0  0
   70.7968   55.6662   14.9910 N   0  0  0  0  0  0  0  0  0  0  0  0
   71.6967   59.4130   16.8772 N   0  0  0  0  0  0  0  0  0  0  0  0
   72.4094   55.0144   12.9849 O   0  0  0  0  0  0  0  0  0  0  0  0
   72.3419   53.5754   14.9872 O   0  0  0  0  0  0  0  0  0  0  0  0
   69.3488   57.6540   14.6785 O   0  0  0  0  0  0  0  0  0  0  0  0
   72.2448   58.4478   18.8883 O   0  0  0  0  0  0  0  0  0  0  0  0
   73.8239   59.8185   18.0443 O   0  0  0  0  0  0  0  0  0  0  0  0
   76.0913   61.6027   18.9468 O   0  0  0  0  0  0  0  0  0  0  0  0
   73.9261   62.4308   18.7570 O   0  0  0  0  0  0  0  0  0  0  0  0
   68.0131   49.7344   11.0799 O   0  0  0  0  0  0  0  0  0  0  0  0
   71.5155   54.4529   14.0537 S   0  0  2  0  0  6  0  0  0  0  0  0
 14  1  1  1
  1 31  1  0
  2 16  1  0
 32  2  1  0
 33  3  1  0
  3 37  2  0
  3 38  1  0
 18  4  1  0
  4 39  1  0
  5  6  1  6
 18  5  1  0
  5 19  1  0
  6 20  1  0
  8  7  2  0
 12  7  1  0
  7 28  1  0
  9  8  1  0
 10  9  2  0
 10 11  1  0
 42 10  1  0
 11 12  2  0
 13 14  1  0
 32 13  1  0
 14 15  1  0
 15 30  1  0
 16 17  1  0
 16 36  1  1
 17 21  1  6
 17 33  1  0
 18 38  1  6
 19 39  1  6
 19 40  1  0
 40 20  1  0
 21 22  1  0
 22 23  2  0
 22 27  1  0
 23 24  1  0
 24 25  2  0
 26 25  1  0
 27 26  2  0
 28 29  1  1
 28 41  1  0
 42 32  1  1
 42 34  2  0
 42 35  2  0
M  END
$$$$
