
     RDKit          3D

 42 45  0  0  0  0  0  0  0  0999 V2000
   71.3374   52.4476   13.3955 C   0  0  0  0  0  0  0  0  0  0  0  0
   72.1878   56.2418   15.6862 C   0  0  0  0  0  0  0  0  0  0  0  0
   73.1448   59.0789   18.1997 C   0  0  0  0  0  0  0  0  0  0  0  0
   76.2785   60.9734   18.8350 C   0  0  0  0  0  0  0  0  0  0  0  0
   74.5602   60.8760   20.4289 C   0  0  1  0  0  0  0  0  0  0  0  0
   73.0725   60.7615   20.5133 C   0  0  0  0  0  0  0  0  0  0  0  0
   66.0830   56.0535   15.7822 C   0  0  0  0  0  0  0  0  0  0  0  0
   66.3316   54.9788   16.6174 C   0  0  0  0  0  0  0  0  0  0  0  0
   67.6050   54.5063   16.8502 C   0  0  0  0  0  0  0  0  0  0  0  0
   68.6495   55.1528   16.2093 C   0  0  0  0  0  0  0  0  0  0  0  0
   68.4389   56.2248   15.3721 C   0  0  0  0  0  0  0  0  0  0  0  0
   67.1381   56.6670   15.1672 C   0  0  0  0  0  0  0  0  0  0  0  0
   71.1038   54.9021   13.9621 C   0  0  0  0  0  0  0  0  0  0  0  0
   71.8881   53.8315   13.2788 C   0  0  1  0  0  0  0  0  0  0  0  0
   73.3377   53.9678   13.6358 C   0  0  0  0  0  0  0  0  0  0  0  0
   71.4815   57.6008   15.5231 C   0  0  2  0  0  0  0  0  0  0  0  0
   71.1932   58.1127   16.8913 C   0  0  2  0  0  0  0  0  0  0  0  0
   75.1468   60.0445   19.2959 C   0  0  1  0  0  0  0  0  0  0  0  0
   74.7778   62.2833   19.9093 C   0  0  1  0  0  0  0  0  0  0  0  0
   72.6229   62.1656   20.1017 C   0  0  0  0  0  0  0  0  0  0  0  0
   69.7297   58.3880   17.1498 C   0  0  0  0  0  0  0  0  0  0  0  0
   69.6119   58.8711   18.5781 C   0  0  0  0  0  0  0  0  0  0  0  0
   69.4156   57.9889   19.6135 C   0  0  0  0  0  0  0  0  0  0  0  0
   69.3017   58.4132   20.9316 C   0  0  0  0  0  0  0  0  0  0  0  0
   69.3941   59.7577   21.1510 C   0  0  0  0  0  0  0  0  0  0  0  0
   69.5899   60.6735   20.1414 C   0  0  0  0  0  0  0  0  0  0  0  0
   69.6971   60.2106   18.8518 C   0  0  0  0  0  0  0  0  0  0  0  0
   64.7014   56.5660   15.5425 C   0  0  2  0  0  0  0  0  0  0  0  0
   64.0283   55.6376   14.5265 C   0  0  0  0  0  0  0  0  0  0  0  0
   74.3014   53.8630   12.5101 C   0  0  0  0  0  0  0  0  0  0  0  0
   72.2551   51.4184   13.9602 C   0  0  0  0  0  0  0  0  0  0  0  0
   71.3538   55.1755   15.3029 N   0  0  0  0  0  0  0  0  0  0  0  0
   72.0609   59.1932   17.2911 N   0  0  0  0  0  0  0  0  0  0  0  0
   70.2474   53.0932   16.5233 O   0  0  0  0  0  0  0  0  0  0  0  0
   70.7695   55.1157   17.8354 O   0  0  0  0  0  0  0  0  0  0  0  0
   70.4011   57.3739   14.7134 O   0  0  0  0  0  0  0  0  0  0  0  0
   73.1581   58.0900   18.9809 O   0  0  0  0  0  0  0  0  0  0  0  0
   74.1745   59.9758   18.2770 O   0  0  0  0  0  0  0  0  0  0  0  0
   75.9383   62.2490   19.2046 O   0  0  0  0  0  0  0  0  0  0  0  0
   73.6243   62.4793   19.1558 O   0  0  0  0  0  0  0  0  0  0  0  0
   64.7730   57.8387   14.9446 O   0  0  0  0  0  0  0  0  0  0  0  0
   70.2902   54.5943   16.4853 S   0  0  2  0  0  6  0  0  0  0  0  0
 14  1  1  1
  1 31  1  0
  2 16  1  0
 32  2  1  0
 33  3  1  0
  3 37  2  0
  3 38  1  0
 18  4  1  0
  4 39  1  0
  5  6  1  6
 18  5  1  0
  5 19  1  0
  6 20  1  0
  8  7  2  0
 12  7  1  0
  7 28  1  0
  9  8  1  0
 10  9  2  0
 10 11  1  0
 42 10  1  0
 11 12  2  0
 13 14  1  0
 32 13  1  0
 14 15  1  0
 15 30  1  0
 16 17  1  0
 16 36  1  6
 17 21  1  6
 17 33  1  0
 18 38  1  6
 19 39  1  6
 19 40  1  0
 40 20  1  0
 21 22  1  0
 22 23  2  0
 22 27  1  0
 23 24  1  0
 24 25  2  0
 26 25  1  0
 27 26  2  0
 28 29  1  6
 28 41  1  0
 42 32  1  6
 42 34  2  0
 42 35  2  0
M  END
$$$$
