
     RDKit          3D

 42 45  0  0  0  0  0  0  0  0999 V2000
   72.9528   55.8123   13.5128 C   0  0  0  0  0  0  0  0  0  0  0  0
   70.5290   56.7608   14.5368 C   0  0  0  0  0  0  0  0  0  0  0  0
   72.6788   58.6302   17.7275 C   0  0  0  0  0  0  0  0  0  0  0  0
   75.8481   59.7996   18.4499 C   0  0  0  0  0  0  0  0  0  0  0  0
   74.5591   60.1714   20.3742 C   0  0  1  0  0  0  0  0  0  0  0  0
   73.1638   60.5261   20.7751 C   0  0  0  0  0  0  0  0  0  0  0  0
   67.0729   52.1173   13.0796 C   0  0  0  0  0  0  0  0  0  0  0  0
   66.8789   53.4762   12.9058 C   0  0  0  0  0  0  0  0  0  0  0  0
   67.4428   54.4136   13.7438 C   0  0  0  0  0  0  0  0  0  0  0  0
   68.2250   53.9445   14.7868 C   0  0  0  0  0  0  0  0  0  0  0  0
   68.4394   52.6001   14.9894 C   0  0  0  0  0  0  0  0  0  0  0  0
   67.8511   51.6912   14.1192 C   0  0  0  0  0  0  0  0  0  0  0  0
   71.5366   54.6647   15.2671 C   0  0  0  0  0  0  0  0  0  0  0  0
   72.8917   55.1158   14.8330 C   0  0  1  0  0  0  0  0  0  0  0  0
   73.8707   53.9931   15.0020 C   0  0  0  0  0  0  0  0  0  0  0  0
   71.2276   57.9136   15.2820 C   0  0  2  0  0  0  0  0  0  0  0  0
   70.4823   58.1304   16.5528 C   0  0  2  0  0  0  0  0  0  0  0  0
   74.6025   59.2524   19.1607 C   0  0  1  0  0  0  0  0  0  0  0  0
   75.0982   61.4622   19.7900 C   0  0  1  0  0  0  0  0  0  0  0  0
   73.1069   62.0182   20.4382 C   0  0  0  0  0  0  0  0  0  0  0  0
   69.1202   58.7589   16.3681 C   0  0  0  0  0  0  0  0  0  0  0  0
   68.7043   59.3246   17.7076 C   0  0  0  0  0  0  0  0  0  0  0  0
   67.6425   60.1904   17.8154 C   0  0  0  0  0  0  0  0  0  0  0  0
   67.2471   60.7233   19.0361 C   0  0  0  0  0  0  0  0  0  0  0  0
   67.9689   60.3438   20.1312 C   0  0  0  0  0  0  0  0  0  0  0  0
   69.0390   59.4795   20.0649 C   0  0  0  0  0  0  0  0  0  0  0  0
   69.3963   58.9757   18.8372 C   0  0  0  0  0  0  0  0  0  0  0  0
   66.4667   51.1079   12.1617 C   0  0  2  0  0  0  0  0  0  0  0  0
   66.8333   49.7169   12.6890 C   0  0  0  0  0  0  0  0  0  0  0  0
   73.2951   52.6715   15.3610 C   0  0  0  0  0  0  0  0  0  0  0  0
   73.9930   55.3307   12.5609 C   0  0  0  0  0  0  0  0  0  0  0  0
   70.4966   55.5873   15.3124 N   0  0  0  0  0  0  0  0  0  0  0  0
   71.2742   58.7649   17.5777 N   0  0  0  0  0  0  0  0  0  0  0  0
   69.0462   54.4568   17.2275 O   0  0  0  0  0  0  0  0  0  0  0  0
   68.0940   56.3437   15.9558 O   0  0  0  0  0  0  0  0  0  0  0  0
   71.2651   58.9656   14.4066 O   0  0  0  0  0  0  0  0  0  0  0  0
   73.2296   57.6097   17.2339 O   0  0  0  0  0  0  0  0  0  0  0  0
   73.4689   59.5408   18.3733 O   0  0  0  0  0  0  0  0  0  0  0  0
   76.0144   61.0985   18.8557 O   0  0  0  0  0  0  0  0  0  0  0  0
   73.9360   62.0460   19.2947 O   0  0  0  0  0  0  0  0  0  0  0  0
   67.0517   51.2260   10.8865 O   0  0  0  0  0  0  0  0  0  0  0  0
   68.9743   55.1018   15.8727 S   0  0  2  0  0  6  0  0  0  0  0  0
 14  1  1  6
  1 31  1  0
  2 16  1  0
 32  2  1  0
 33  3  1  0
  3 37  2  0
  3 38  1  0
 18  4  1  0
  4 39  1  0
  5  6  1  6
 18  5  1  0
  5 19  1  0
  6 20  1  0
  8  7  2  0
 12  7  1  0
  7 28  1  0
  9  8  1  0
 10  9  2  0
 10 11  1  0
 42 10  1  0
 11 12  2  0
 13 14  1  0
 32 13  1  0
 14 15  1  0
 15 30  1  0
 16 17  1  0
 16 36  1  6
 17 21  1  6
 17 33  1  0
 18 38  1  6
 19 39  1  6
 19 40  1  0
 40 20  1  0
 21 22  1  0
 22 23  2  0
 22 27  1  0
 23 24  1  0
 24 25  2  0
 26 25  1  0
 27 26  2  0
 28 29  1  1
 28 41  1  0
 42 32  1  6
 42 34  2  0
 42 35  2  0
M  END
$$$$
