
     RDKit          3D

 42 45  0  0  0  0  0  0  0  0999 V2000
   73.5554   53.6947   14.0391 C   0  0  0  0  0  0  0  0  0  0  0  0
   71.4516   56.5513   15.4155 C   0  0  0  0  0  0  0  0  0  0  0  0
   71.9800   58.8061   18.3724 C   0  0  0  0  0  0  0  0  0  0  0  0
   74.3017   60.4914   17.3478 C   0  0  0  0  0  0  0  0  0  0  0  0
   75.0650   60.4519   19.5656 C   0  0  1  0  0  0  0  0  0  0  0  0
   74.5475   60.2999   20.9593 C   0  0  0  0  0  0  0  0  0  0  0  0
   67.6407   52.3869   11.7572 C   0  0  0  0  0  0  0  0  0  0  0  0
   66.9274   52.9651   12.7922 C   0  0  0  0  0  0  0  0  0  0  0  0
   67.4090   54.0396   13.5081 C   0  0  0  0  0  0  0  0  0  0  0  0
   68.6542   54.5327   13.1531 C   0  0  0  0  0  0  0  0  0  0  0  0
   69.3910   53.9824   12.1290 C   0  0  0  0  0  0  0  0  0  0  0  0
   68.8655   52.9002   11.4345 C   0  0  0  0  0  0  0  0  0  0  0  0
   71.2006   54.2029   14.8117 C   0  0  0  0  0  0  0  0  0  0  0  0
   72.6281   53.9663   15.1785 C   0  0  1  0  0  0  0  0  0  0  0  0
   72.6985   52.9757   16.3015 C   0  0  0  0  0  0  0  0  0  0  0  0
   70.8336   57.9152   15.0549 C   0  0  2  0  0  0  0  0  0  0  0  0
   70.4785   58.5885   16.3347 C   0  0  2  0  0  0  0  0  0  0  0  0
   74.3316   59.5631   18.5699 C   0  0  1  0  0  0  0  0  0  0  0  0
   74.5758   61.8266   19.1546 C   0  0  1  0  0  0  0  0  0  0  0  0
   73.8866   61.6591   21.2019 C   0  0  0  0  0  0  0  0  0  0  0  0
   69.3334   59.5681   16.2178 C   0  0  0  0  0  0  0  0  0  0  0  0
   68.8222   59.8262   17.6176 C   0  0  0  0  0  0  0  0  0  0  0  0
   68.9212   61.0704   18.1929 C   0  0  0  0  0  0  0  0  0  0  0  0
   68.4605   61.3266   19.4784 C   0  0  0  0  0  0  0  0  0  0  0  0
   67.9012   60.2761   20.1479 C   0  0  0  0  0  0  0  0  0  0  0  0
   67.7841   59.0152   19.6069 C   0  0  0  0  0  0  0  0  0  0  0  0
   68.2529   58.8055   18.3322 C   0  0  0  0  0  0  0  0  0  0  0  0
   67.1081   51.2290   10.9796 C   0  0  2  0  0  0  0  0  0  0  0  0
   66.7377   51.7355    9.5818 C   0  0  0  0  0  0  0  0  0  0  0  0
   72.1441   51.6266   16.0197 C   0  0  0  0  0  0  0  0  0  0  0  0
   75.0082   53.8805   14.3129 C   0  0  0  0  0  0  0  0  0  0  0  0
   70.6739   55.4851   14.9276 N   0  0  0  0  0  0  0  0  0  0  0  0
   71.6210   59.1204   17.0360 N   0  0  0  0  0  0  0  0  0  0  0  0
   68.1986   56.4450   14.8937 O   0  0  0  0  0  0  0  0  0  0  0  0
   69.7194   56.9800   13.0268 O   0  0  0  0  0  0  0  0  0  0  0  0
   69.8018   57.6505   14.1949 O   0  0  0  0  0  0  0  0  0  0  0  0
   71.3046   57.9284   18.9740 O   0  0  0  0  0  0  0  0  0  0  0  0
   73.0143   59.3970   19.0445 O   0  0  0  0  0  0  0  0  0  0  0  0
   74.4064   61.7785   17.8079 O   0  0  0  0  0  0  0  0  0  0  0  0
   73.4072   61.9372   19.9024 O   0  0  0  0  0  0  0  0  0  0  0  0
   65.9162   50.7749   11.5759 O   0  0  0  0  0  0  0  0  0  0  0  0
   69.3031   55.9085   14.0282 S   0  0  2  0  0  6  0  0  0  0  0  0
 14  1  1  6
  1 31  1  0
  2 16  1  0
 32  2  1  0
 33  3  1  0
  3 37  2  0
  3 38  1  0
 18  4  1  0
  4 39  1  0
  5  6  1  1
 18  5  1  0
  5 19  1  0
  6 20  1  0
  8  7  2  0
 12  7  1  0
  7 28  1  0
  9  8  1  0
 10  9  2  0
 10 11  1  0
 42 10  1  0
 11 12  2  0
 13 14  1  0
 32 13  1  0
 14 15  1  0
 15 30  1  0
 16 17  1  0
 16 36  1  6
 17 21  1  6
 17 33  1  0
 18 38  1  1
 19 39  1  6
 19 40  1  0
 40 20  1  0
 21 22  1  0
 22 23  2  0
 22 27  1  0
 23 24  1  0
 24 25  2  0
 26 25  1  0
 27 26  2  0
 28 29  1  6
 28 41  1  0
 42 32  1  1
 42 34  2  0
 42 35  2  0
M  END
$$$$
