
     RDKit          3D

 42 45  0  0  0  0  0  0  0  0999 V2000
   73.2308   53.4861   13.4486 C   0  0  0  0  0  0  0  0  0  0  0  0
   69.9637   56.8305   14.4422 C   0  0  0  0  0  0  0  0  0  0  0  0
   72.6533   58.8041   18.0378 C   0  0  0  0  0  0  0  0  0  0  0  0
   75.8061   60.3549   19.1293 C   0  0  0  0  0  0  0  0  0  0  0  0
   73.9291   60.6091   20.5132 C   0  0  1  0  0  0  0  0  0  0  0  0
   72.4436   60.7471   20.4255 C   0  0  0  0  0  0  0  0  0  0  0  0
   66.3571   52.0932   13.0834 C   0  0  0  0  0  0  0  0  0  0  0  0
   66.2811   53.4744   13.0525 C   0  0  0  0  0  0  0  0  0  0  0  0
   67.1066   54.2744   13.8123 C   0  0  0  0  0  0  0  0  0  0  0  0
   68.0332   53.6410   14.6246 C   0  0  0  0  0  0  0  0  0  0  0  0
   68.1367   52.2696   14.6802 C   0  0  0  0  0  0  0  0  0  0  0  0
   67.2837   51.5030   13.8964 C   0  0  0  0  0  0  0  0  0  0  0  0
   71.0715   54.7589   13.7913 C   0  0  0  0  0  0  0  0  0  0  0  0
   72.5007   54.5670   14.1770 C   0  0  1  0  0  0  0  0  0  0  0  0
   72.6125   54.5104   15.6709 C   0  0  0  0  0  0  0  0  0  0  0  0
   71.2158   57.6921   14.6915 C   0  0  2  0  0  0  0  0  0  0  0  0
   71.1385   58.1831   16.0952 C   0  0  2  0  0  0  0  0  0  0  0  0
   74.4888   59.6466   19.4742 C   0  0  1  0  0  0  0  0  0  0  0  0
   74.4392   61.9385   19.9932 C   0  0  1  0  0  0  0  0  0  0  0  0
   72.2878   62.1886   19.9349 C   0  0  0  0  0  0  0  0  0  0  0  0
   70.2679   59.4059   16.2725 C   0  0  0  0  0  0  0  0  0  0  0  0
   69.6582   59.3231   17.6541 C   0  0  0  0  0  0  0  0  0  0  0  0
   69.9312   58.2669   18.4899 C   0  0  0  0  0  0  0  0  0  0  0  0
   69.3785   58.1712   19.7611 C   0  0  0  0  0  0  0  0  0  0  0  0
   68.5452   59.1831   20.1430 C   0  0  0  0  0  0  0  0  0  0  0  0
   68.2463   60.2576   19.3352 C   0  0  0  0  0  0  0  0  0  0  0  0
   68.8147   60.3127   18.0852 C   0  0  0  0  0  0  0  0  0  0  0  0
   65.4658   51.2330   12.2499 C   0  0  2  0  0  0  0  0  0  0  0  0
   66.3480   50.2146   11.5204 C   0  0  0  0  0  0  0  0  0  0  0  0
   73.9774   54.6826   16.2318 C   0  0  0  0  0  0  0  0  0  0  0  0
   73.4994   53.7302   12.0035 C   0  0  0  0  0  0  0  0  0  0  0  0
   70.2274   55.4632   14.6436 N   0  0  0  0  0  0  0  0  0  0  0  0
   72.4277   58.2979   16.7315 N   0  0  0  0  0  0  0  0  0  0  0  0
   69.7887   53.6963   16.5763 O   0  0  0  0  0  0  0  0  0  0  0  0
   68.2929   55.6469   16.3707 O   0  0  0  0  0  0  0  0  0  0  0  0
   71.2244   58.6450   13.7086 O   0  0  0  0  0  0  0  0  0  0  0  0
   71.8997   58.4022   18.9647 O   0  0  0  0  0  0  0  0  0  0  0  0
   73.6388   59.6994   18.3503 O   0  0  0  0  0  0  0  0  0  0  0  0
   75.6483   61.6832   19.4297 O   0  0  0  0  0  0  0  0  0  0  0  0
   73.4271   62.2930   19.1061 O   0  0  0  0  0  0  0  0  0  0  0  0
   64.8505   52.0211   11.2586 O   0  0  0  0  0  0  0  0  0  0  0  0
   69.1148   54.6191   15.6010 S   0  0  2  0  0  6  0  0  0  0  0  0
 14  1  1  6
  1 31  1  0
  2 16  1  0
 32  2  1  0
 33  3  1  0
  3 37  2  0
  3 38  1  0
 18  4  1  0
  4 39  1  0
  5  6  1  6
 18  5  1  0
  5 19  1  0
  6 20  1  0
  8  7  2  0
 12  7  1  0
  7 28  1  0
  9  8  1  0
 10  9  2  0
 10 11  1  0
 42 10  1  0
 11 12  2  0
 13 14  1  0
 32 13  1  0
 14 15  1  0
 15 30  1  0
 16 17  1  0
 16 36  1  6
 17 21  1  6
 17 33  1  0
 18 38  1  6
 19 39  1  6
 19 40  1  0
 40 20  1  0
 21 22  1  0
 22 23  2  0
 22 27  1  0
 23 24  1  0
 24 25  2  0
 26 25  1  0
 27 26  2  0
 28 29  1  6
 28 41  1  0
 42 32  1  6
 42 34  2  0
 42 35  2  0
M  END
$$$$
