
     RDKit          3D

 42 45  0  0  0  0  0  0  0  0999 V2000
   72.6735   54.0668   12.9911 C   0  0  0  0  0  0  0  0  0  0  0  0
   70.4216   55.7119   16.5711 C   0  0  0  0  0  0  0  0  0  0  0  0
   72.9895   58.5017   17.7875 C   0  0  0  0  0  0  0  0  0  0  0  0
   75.7064   60.6194   18.5828 C   0  0  0  0  0  0  0  0  0  0  0  0
   74.1093   60.7137   20.2985 C   0  0  1  0  0  0  0  0  0  0  0  0
   72.6291   60.6641   20.4981 C   0  0  0  0  0  0  0  0  0  0  0  0
   67.7450   51.1477   12.3920 C   0  0  0  0  0  0  0  0  0  0  0  0
   67.5173   52.4996   12.2052 C   0  0  0  0  0  0  0  0  0  0  0  0
   67.7403   53.4280   13.1989 C   0  0  0  0  0  0  0  0  0  0  0  0
   68.2083   52.9569   14.4149 C   0  0  0  0  0  0  0  0  0  0  0  0
   68.4460   51.6193   14.6356 C   0  0  0  0  0  0  0  0  0  0  0  0
   68.2072   50.7194   13.6047 C   0  0  0  0  0  0  0  0  0  0  0  0
   70.6584   54.8579   14.3003 C   0  0  0  0  0  0  0  0  0  0  0  0
   72.1438   54.7351   14.2178 C   0  0  1  0  0  0  0  0  0  0  0  0
   72.6738   54.1945   15.5117 C   0  0  0  0  0  0  0  0  0  0  0  0
   70.7482   57.1111   16.0162 C   0  0  2  0  0  0  0  0  0  0  0  0
   70.5712   58.0790   17.1339 C   0  0  2  0  0  0  0  0  0  0  0  0
   74.5820   59.7741   19.1972 C   0  0  1  0  0  0  0  0  0  0  0  0
   74.3340   62.0666   19.6527 C   0  0  1  0  0  0  0  0  0  0  0  0
   72.1967   62.0482   20.0079 C   0  0  0  0  0  0  0  0  0  0  0  0
   70.1647   59.4652   16.6893 C   0  0  0  0  0  0  0  0  0  0  0  0
   69.4457   60.1137   17.8511 C   0  0  0  0  0  0  0  0  0  0  0  0
   69.2147   59.4256   19.0182 C   0  0  0  0  0  0  0  0  0  0  0  0
   68.5533   60.0025   20.0953 C   0  0  0  0  0  0  0  0  0  0  0  0
   68.1403   61.2944   19.9380 C   0  0  0  0  0  0  0  0  0  0  0  0
   68.3519   62.0174   18.7852 C   0  0  0  0  0  0  0  0  0  0  0  0
   69.0103   61.4081   17.7440 C   0  0  0  0  0  0  0  0  0  0  0  0
   67.5105   50.1488   11.3075 C   0  0  2  0  0  0  0  0  0  0  0  0
   68.6892   50.2323   10.3322 C   0  0  0  0  0  0  0  0  0  0  0  0
   74.1141   53.8307   15.5278 C   0  0  0  0  0  0  0  0  0  0  0  0
   72.1540   52.6991   12.7091 C   0  0  0  0  0  0  0  0  0  0  0  0
   70.0431   54.8243   15.5473 N   0  0  0  0  0  0  0  0  0  0  0  0
   71.6667   58.0742   18.0720 N   0  0  0  0  0  0  0  0  0  0  0  0
   68.3741   53.3607   17.0040 O   0  0  0  0  0  0  0  0  0  0  0  0
   67.4743   55.2124   15.6453 O   0  0  0  0  0  0  0  0  0  0  0  0
   69.9435   57.2845   14.9223 O   0  0  0  0  0  0  0  0  0  0  0  0
   73.7030   57.7652   17.0547 O   0  0  0  0  0  0  0  0  0  0  0  0
   73.5347   59.6639   18.2594 O   0  0  0  0  0  0  0  0  0  0  0  0
   75.4370   61.9323   18.8717 O   0  0  0  0  0  0  0  0  0  0  0  0
   73.1346   62.2479   18.9704 O   0  0  0  0  0  0  0  0  0  0  0  0
   66.3579   50.5082   10.5831 O   0  0  0  0  0  0  0  0  0  0  0  0
   68.5191   54.1038   15.7065 S   0  0  2  0  0  6  0  0  0  0  0  0
 14  1  1  6
  1 31  1  0
  2 16  1  0
 32  2  1  0
 33  3  1  0
  3 37  2  0
  3 38  1  0
 18  4  1  0
  4 39  1  0
  5  6  1  6
 18  5  1  0
  5 19  1  0
  6 20  1  0
  8  7  2  0
 12  7  1  0
  7 28  1  0
  9  8  1  0
 10  9  2  0
 10 11  1  0
 42 10  1  0
 11 12  2  0
 13 14  1  0
 32 13  1  0
 14 15  1  0
 15 30  1  0
 16 17  1  0
 16 36  1  6
 17 21  1  6
 17 33  1  0
 18 38  1  6
 19 39  1  6
 19 40  1  0
 40 20  1  0
 21 22  1  0
 22 23  2  0
 22 27  1  0
 23 24  1  0
 24 25  2  0
 26 25  1  0
 27 26  2  0
 28 29  1  6
 28 41  1  0
 42 32  1  6
 42 34  2  0
 42 35  2  0
M  END
$$$$
