
     RDKit          3D

 42 45  0  0  0  0  0  0  0  0999 V2000
   73.5465   54.0010   13.2080 C   0  0  0  0  0  0  0  0  0  0  0  0
   70.1049   56.9225   14.2371 C   0  0  0  0  0  0  0  0  0  0  0  0
   72.6791   58.8657   17.8162 C   0  0  0  0  0  0  0  0  0  0  0  0
   75.8957   60.3737   18.7356 C   0  0  0  0  0  0  0  0  0  0  0  0
   74.2512   60.2744   20.4054 C   0  0  1  0  0  0  0  0  0  0  0  0
   72.7673   60.3487   20.5665 C   0  0  0  0  0  0  0  0  0  0  0  0
   66.5586   52.1147   12.8027 C   0  0  0  0  0  0  0  0  0  0  0  0
   67.6785   51.6152   13.4435 C   0  0  0  0  0  0  0  0  0  0  0  0
   68.4830   52.4010   14.2398 C   0  0  0  0  0  0  0  0  0  0  0  0
   68.1295   53.7332   14.3817 C   0  0  0  0  0  0  0  0  0  0  0  0
   67.0224   54.2636   13.7592 C   0  0  0  0  0  0  0  0  0  0  0  0
   66.2402   53.4337   12.9660 C   0  0  0  0  0  0  0  0  0  0  0  0
   71.2076   54.8066   13.7377 C   0  0  0  0  0  0  0  0  0  0  0  0
   72.6579   54.8152   14.0908 C   0  0  1  0  0  0  0  0  0  0  0  0
   72.8170   54.5578   15.5590 C   0  0  0  0  0  0  0  0  0  0  0  0
   71.2295   57.7963   14.8236 C   0  0  2  0  0  0  0  0  0  0  0  0
   70.8429   58.1284   16.2228 C   0  0  2  0  0  0  0  0  0  0  0  0
   74.6650   59.5471   19.1331 C   0  0  1  0  0  0  0  0  0  0  0  0
   74.6429   61.7009   20.0740 C   0  0  1  0  0  0  0  0  0  0  0  0
   72.5033   61.8453   20.3834 C   0  0  0  0  0  0  0  0  0  0  0  0
   69.3681   58.4041   16.4051 C   0  0  0  0  0  0  0  0  0  0  0  0
   69.1660   58.8173   17.8458 C   0  0  0  0  0  0  0  0  0  0  0  0
   69.2558   60.1346   18.2273 C   0  0  0  0  0  0  0  0  0  0  0  0
   69.0767   60.5338   19.5459 C   0  0  0  0  0  0  0  0  0  0  0  0
   68.8057   59.5484   20.4514 C   0  0  0  0  0  0  0  0  0  0  0  0
   68.7080   58.2180   20.1094 C   0  0  0  0  0  0  0  0  0  0  0  0
   68.8923   57.8669   18.7936 C   0  0  0  0  0  0  0  0  0  0  0  0
   65.6860   51.2548   11.9493 C   0  0  2  0  0  0  0  0  0  0  0  0
   65.4924   49.9195   12.6752 C   0  0  0  0  0  0  0  0  0  0  0  0
   74.1540   54.8552   16.1344 C   0  0  0  0  0  0  0  0  0  0  0  0
   74.9595   53.8484   13.6555 C   0  0  0  0  0  0  0  0  0  0  0  0
   70.3191   55.5571   14.5007 N   0  0  0  0  0  0  0  0  0  0  0  0
   71.6931   59.1234   16.8289 N   0  0  0  0  0  0  0  0  0  0  0  0
   69.6914   53.9083   16.4849 O   0  0  0  0  0  0  0  0  0  0  0  0
   68.2297   55.8405   16.0215 O   0  0  0  0  0  0  0  0  0  0  0  0
   71.3810   58.8504   13.9632 O   0  0  0  0  0  0  0  0  0  0  0  0
   72.6581   57.7451   18.3928 O   0  0  0  0  0  0  0  0  0  0  0  0
   73.6497   59.7589   18.1778 O   0  0  0  0  0  0  0  0  0  0  0  0
   75.7554   61.6153   19.2997 O   0  0  0  0  0  0  0  0  0  0  0  0
   73.4972   62.1576   19.4292 O   0  0  0  0  0  0  0  0  0  0  0  0
   66.3510   50.9680   10.7418 O   0  0  0  0  0  0  0  0  0  0  0  0
   69.1171   54.7699   15.3965 S   0  0  2  0  0  6  0  0  0  0  0  0
 14  1  1  6
  1 31  1  0
  2 16  1  0
 32  2  1  0
 33  3  1  0
  3 37  2  0
  3 38  1  0
 18  4  1  0
  4 39  1  0
  5  6  1  6
 18  5  1  0
  5 19  1  0
  6 20  1  0
  8  7  2  0
 12  7  1  0
  7 28  1  0
  9  8  1  0
 10  9  2  0
 10 11  1  0
 42 10  1  0
 11 12  2  0
 13 14  1  0
 32 13  1  0
 14 15  1  0
 15 30  1  0
 16 17  1  0
 16 36  1  6
 17 21  1  6
 17 33  1  0
 18 38  1  6
 19 39  1  6
 19 40  1  0
 40 20  1  0
 21 22  1  0
 22 23  2  0
 22 27  1  0
 23 24  1  0
 24 25  2  0
 26 25  1  0
 27 26  2  0
 28 29  1  1
 28 41  1  0
 42 32  1  6
 42 34  2  0
 42 35  2  0
M  END
$$$$
