
     RDKit          3D

  8  7  0  0  0  0  0  0  0  0999 V2000
    1.1560   -6.1446   -0.8660 O   0  0  0  0  0  0  0  0  0  0  0  0
    2.0764   -5.9737   -1.8951 C   0  0  0  0  0  0  0  0  0  0  0  0
    3.3775   -5.4575   -1.2893 C   0  0  2  0  0  0  0  0  0  0  0  0
    6.4577   -6.9434   -0.4198 O   0  0  0  0  0  0  0  0  0  0  0  0
    7.6969   -6.3278   -0.6255 C   0  0  0  0  0  0  0  0  0  0  0  0
    4.1594   -4.8737   -2.2703 O   0  0  0  0  0  0  0  0  0  0  0  0
    4.1580   -6.5978   -0.6637 C   0  0  0  0  0  0  0  0  0  0  0  0
    5.4670   -6.0301   -0.1611 C   0  0  0  0  0  0  0  0  0  0  0  0
  2  1  1  0
  3  2  1  0
  3  6  1  6
  7  3  1  0
  4  5  1  0
  8  4  1  0
  7  8  1  0
M  END
$$$$
