
     RDKit          3D

  8  7  0  0  0  0  0  0  0  0999 V2000
   -6.2935    1.3071   -2.8639 O   0  0  0  0  0  0  0  0  0  0  0  0
   -5.9157    2.4509   -3.5597 C   0  0  0  0  0  0  0  0  0  0  0  0
   -5.3266    3.4426   -2.5617 C   0  0  2  0  0  0  0  0  0  0  0  0
   -6.8789    6.2313   -0.7952 O   0  0  0  0  0  0  0  0  0  0  0  0
   -6.4473    6.7969    0.4092 C   0  0  0  0  0  0  0  0  0  0  0  0
   -4.5616    2.7736   -1.6227 O   0  0  0  0  0  0  0  0  0  0  0  0
   -6.4340    4.1878   -1.8412 C   0  0  0  0  0  0  0  0  0  0  0  0
   -5.8788    5.5310   -1.4214 C   0  0  0  0  0  0  0  0  0  0  0  0
  2  1  1  0
  3  2  1  0
  3  6  1  1
  7  3  1  0
  4  5  1  0
  8  4  1  0
  7  8  1  0
M  END
$$$$
