
     RDKit          3D

  8  7  0  0  0  0  0  0  0  0999 V2000
    6.6567    1.7076   -0.2953 O   0  0  0  0  0  0  0  0  0  0  0  0
    5.5381    1.6329    0.5284 C   0  0  0  0  0  0  0  0  0  0  0  0
    4.5968    2.7743    0.1579 C   0  0  2  0  0  0  0  0  0  0  0  0
    5.6202    5.9357   -1.3458 O   0  0  0  0  0  0  0  0  0  0  0  0
    5.1017    6.7618   -2.3486 C   0  0  0  0  0  0  0  0  0  0  0  0
    3.9942    2.5165   -1.0606 O   0  0  0  0  0  0  0  0  0  0  0  0
    5.3641    4.0785    0.0517 C   0  0  0  0  0  0  0  0  0  0  0  0
    4.8872    4.7852   -1.1980 C   0  0  0  0  0  0  0  0  0  0  0  0
  2  1  1  0
  3  2  1  0
  3  6  1  6
  7  3  1  0
  4  5  1  0
  8  4  1  0
  7  8  1  0
M  END
$$$$
