
     RDKit          3D

  8  7  0  0  0  0  0  0  0  0999 V2000
    1.4877   -2.4140    1.5752 O   0  0  0  0  0  0  0  0  0  0  0  0
    2.4245   -3.3890    1.9025 C   0  0  0  0  0  0  0  0  0  0  0  0
    1.7601   -4.7545    1.7601 C   0  0  2  0  0  0  0  0  0  0  0  0
    2.9776   -8.0474    1.9344 O   0  0  0  0  0  0  0  0  0  0  0  0
    3.4342   -8.6259    3.1234 C   0  0  0  0  0  0  0  0  0  0  0  0
    0.4866   -4.7217    2.3002 O   0  0  0  0  0  0  0  0  0  0  0  0
    2.5669   -5.8130    2.4878 C   0  0  0  0  0  0  0  0  0  0  0  0
    1.9573   -7.1569    2.1550 C   0  0  0  0  0  0  0  0  0  0  0  0
  2  1  1  0
  3  2  1  0
  3  6  1  1
  7  3  1  0
  4  5  1  0
  8  4  1  0
  7  8  1  0
M  END
$$$$
