
     RDKit          3D

  8  7  0  0  0  0  0  0  0  0999 V2000
    8.0527   -2.5306   -1.2595 O   0  0  0  0  0  0  0  0  0  0  0  0
    8.1268   -3.6972   -0.4889 C   0  0  0  0  0  0  0  0  0  0  0  0
    6.7091   -3.9894   -0.0277 C   0  0  2  0  0  0  0  0  0  0  0  0
    5.1243   -4.3413    2.4326 O   0  0  0  0  0  0  0  0  0  0  0  0
    4.0157   -4.5058    3.2254 C   0  0  0  0  0  0  0  0  0  0  0  0
    5.8879   -4.2216   -1.1083 O   0  0  0  0  0  0  0  0  0  0  0  0
    6.1749   -2.8403    0.8304 C   0  0  0  0  0  0  0  0  0  0  0  0
    4.9580   -3.3451    1.5200 C   0  0  0  0  0  0  0  0  0  0  0  0
  2  1  1  1
  3  2  1  0
  3  6  1  6
  7  3  1  0
  5  4  1  6
  8  4  1  1
  7  8  1  6
M  END
$$$$
