
     RDKit          3D

  8  7  0  0  0  0  0  0  0  0999 V2000
   -8.2052    5.0125    0.2772 O   0  0  0  0  0  0  0  0  0  0  0  0
   -8.0492    3.6315    0.1079 C   0  0  0  0  0  0  0  0  0  0  0  0
   -7.7710    3.4160   -1.3701 C   0  0  2  0  0  0  0  0  0  0  0  0
   -5.1874    2.4958   -2.8644 O   0  0  0  0  0  0  0  0  0  0  0  0
   -4.5247    2.1667   -4.0208 C   0  0  0  0  0  0  0  0  0  0  0  0
   -7.6063    2.0758   -1.6401 O   0  0  0  0  0  0  0  0  0  0  0  0
   -6.5443    4.2188   -1.8092 C   0  0  0  0  0  0  0  0  0  0  0  0
   -6.0145    3.5635   -3.0344 C   0  0  0  0  0  0  0  0  0  0  0  0
  2  1  1  1
  3  2  1  0
  3  6  1  1
  7  3  1  0
  5  4  1  6
  8  4  1  1
  7  8  1  6
M  END
$$$$
