
     RDKit          3D

  8  7  0  0  0  0  0  0  0  0999 V2000
    6.8772    5.5648   -2.2104 O   0  0  0  0  0  0  0  0  0  0  0  0
    5.7408    6.1815   -1.6971 C   0  0  0  0  0  0  0  0  0  0  0  0
    4.9186    5.1283   -0.9615 C   0  0  2  0  0  0  0  0  0  0  0  0
    1.7014    5.2027    0.7563 O   0  0  0  0  0  0  0  0  0  0  0  0
    0.7970    4.2321    1.1999 C   0  0  0  0  0  0  0  0  0  0  0  0
    4.4889    4.1568   -1.8481 O   0  0  0  0  0  0  0  0  0  0  0  0
    3.7030    5.7642   -0.3144 C   0  0  0  0  0  0  0  0  0  0  0  0
    2.7905    4.6447    0.1357 C   0  0  0  0  0  0  0  0  0  0  0  0
  2  1  1  0
  3  2  1  0
  3  6  1  6
  7  3  1  0
  4  5  1  0
  8  4  1  0
  7  8  1  0
M  END
$$$$
