
     RDKit          3D

  8  7  0  0  0  0  0  0  0  0999 V2000
   -6.2513    0.6739   -2.5313 O   0  0  0  0  0  0  0  0  0  0  0  0
   -5.0174    1.2884   -2.7765 C   0  0  0  0  0  0  0  0  0  0  0  0
   -5.1640    2.7286   -2.3155 C   0  0  2  0  0  0  0  0  0  0  0  0
   -5.2833    5.5520   -2.6809 O   0  0  0  0  0  0  0  0  0  0  0  0
   -5.3987    6.7858   -2.0901 C   0  0  0  0  0  0  0  0  0  0  0  0
   -5.2828    2.7872   -0.9449 O   0  0  0  0  0  0  0  0  0  0  0  0
   -6.3612    3.3931   -2.9989 C   0  0  0  0  0  0  0  0  0  0  0  0
   -6.4066    4.8001   -2.5198 C   0  0  0  0  0  0  0  0  0  0  0  0
  2  1  1  1
  3  2  1  0
  3  6  1  1
  7  3  1  0
  5  4  1  6
  8  4  1  1
  7  8  1  6
M  END
$$$$
