
     RDKit          3D

  8  7  0  0  0  0  0  0  0  0999 V2000
    7.4367   -0.7458   -1.2222 O   0  0  0  0  0  0  0  0  0  0  0  0
    7.0606   -1.9203   -1.8661 C   0  0  0  0  0  0  0  0  0  0  0  0
    6.2024   -2.7364   -0.9050 C   0  0  2  0  0  0  0  0  0  0  0  0
    6.9882   -6.0183    0.4799 O   0  0  0  0  0  0  0  0  0  0  0  0
    6.4680   -6.2818    1.7514 C   0  0  0  0  0  0  0  0  0  0  0  0
    5.6396   -1.9079    0.0497 O   0  0  0  0  0  0  0  0  0  0  0  0
    7.0461   -3.7820   -0.2011 C   0  0  0  0  0  0  0  0  0  0  0  0
    6.2546   -5.0712   -0.1891 C   0  0  0  0  0  0  0  0  0  0  0  0
  2  1  1  0
  3  2  1  0
  3  6  1  1
  7  3  1  0
  4  5  1  0
  8  4  1  0
  7  8  1  0
M  END
$$$$
