
     RDKit          3D

  8  7  0  0  0  0  0  0  0  0999 V2000
   -2.5948    2.6520    2.4684 O   0  0  0  0  0  0  0  0  0  0  0  0
   -2.0194    3.6593    3.2523 C   0  0  0  0  0  0  0  0  0  0  0  0
   -3.1308    4.6529    3.5454 C   0  0  2  0  0  0  0  0  0  0  0  0
   -4.7095    7.0852    1.2489 O   0  0  0  0  0  0  0  0  0  0  0  0
   -4.7510    8.4537    1.3494 C   0  0  0  0  0  0  0  0  0  0  0  0
   -4.0072    4.1371    4.4738 O   0  0  0  0  0  0  0  0  0  0  0  0
   -3.8609    5.0389    2.2570 C   0  0  0  0  0  0  0  0  0  0  0  0
   -4.0264    6.5165    2.2799 C   0  0  0  0  0  0  0  0  0  0  0  0
  2  1  1  1
  3  2  1  0
  3  6  1  1
  7  3  1  0
  5  4  1  6
  8  4  1  1
  7  8  1  6
M  END
$$$$
