
     RDKit          3D

  8  7  0  0  0  0  0  0  0  0999 V2000
    6.1679    6.4961   -1.5079 O   0  0  0  0  0  0  0  0  0  0  0  0
    6.4800    5.4828   -0.6072 C   0  0  0  0  0  0  0  0  0  0  0  0
    5.2526    4.5914   -0.4491 C   0  0  2  0  0  0  0  0  0  0  0  0
    1.9026    5.1748    0.7171 O   0  0  0  0  0  0  0  0  0  0  0  0
    0.7237    4.4279    0.8127 C   0  0  0  0  0  0  0  0  0  0  0  0
    4.6790    4.3495   -1.6849 O   0  0  0  0  0  0  0  0  0  0  0  0
    4.2226    5.2632    0.4390 C   0  0  0  0  0  0  0  0  0  0  0  0
    2.9919    4.3836    0.4524 C   0  0  0  0  0  0  0  0  0  0  0  0
  2  1  1  0
  3  2  1  0
  3  6  1  6
  7  3  1  0
  4  5  1  0
  8  4  1  0
  7  8  1  0
M  END
$$$$
