
     RDKit          3D

  8  7  0  0  0  0  0  0  0  0999 V2000
    8.6648   -2.9113   -3.2463 O   0  0  0  0  0  0  0  0  0  0  0  0
    8.3293   -3.0632   -1.8956 C   0  0  0  0  0  0  0  0  0  0  0  0
    7.0066   -3.8104   -1.8704 C   0  0  2  0  0  0  0  0  0  0  0  0
    3.9601   -3.7294   -3.7837 O   0  0  0  0  0  0  0  0  0  0  0  0
    2.6991   -4.2475   -3.6225 C   0  0  0  0  0  0  0  0  0  0  0  0
    7.1326   -5.0360   -2.4853 O   0  0  0  0  0  0  0  0  0  0  0  0
    5.9052   -2.9767   -2.5291 C   0  0  0  0  0  0  0  0  0  0  0  0
    4.7143   -3.8578   -2.6578 C   0  0  0  0  0  0  0  0  0  0  0  0
  2  1  1  1
  3  2  1  0
  3  6  1  6
  7  3  1  0
  5  4  1  6
  8  4  1  1
  7  8  1  6
M  END
$$$$
