
     RDKit          3D

  8  7  0  0  0  0  0  0  0  0999 V2000
   -4.4435   -1.4266    0.1306 O   0  0  0  0  0  0  0  0  0  0  0  0
   -4.6306   -2.6500   -0.5240 C   0  0  0  0  0  0  0  0  0  0  0  0
   -3.6526   -3.6232    0.1123 C   0  0  2  0  0  0  0  0  0  0  0  0
   -0.0101   -3.8097    0.7317 O   0  0  0  0  0  0  0  0  0  0  0  0
    0.7079   -4.8343    1.2966 C   0  0  0  0  0  0  0  0  0  0  0  0
   -4.0179   -3.8945    1.4119 O   0  0  0  0  0  0  0  0  0  0  0  0
   -2.2263   -3.0724    0.0469 C   0  0  0  0  0  0  0  0  0  0  0  0
   -1.3444   -4.0771    0.6981 C   0  0  0  0  0  0  0  0  0  0  0  0
  2  1  1  1
  3  2  1  0
  3  6  1  1
  7  3  1  0
  5  4  1  6
  8  4  1  1
  7  8  1  6
M  END
$$$$
