
     RDKit          3D

  8  7  0  0  0  0  0  0  0  0999 V2000
   -0.3227    7.0897   -0.0279 O   0  0  0  0  0  0  0  0  0  0  0  0
   -1.6069    7.3949    0.4390 C   0  0  0  0  0  0  0  0  0  0  0  0
   -2.5294    6.3355   -0.1397 C   0  0  2  0  0  0  0  0  0  0  0  0
   -3.4117    4.9675   -3.4265 O   0  0  0  0  0  0  0  0  0  0  0  0
   -4.3146    3.9755   -3.7189 C   0  0  0  0  0  0  0  0  0  0  0  0
   -2.1594    5.0827    0.2959 O   0  0  0  0  0  0  0  0  0  0  0  0
   -2.5362    6.4050   -1.6684 C   0  0  0  0  0  0  0  0  0  0  0  0
   -3.5284    5.4039   -2.1425 C   0  0  0  0  0  0  0  0  0  0  0  0
  2  1  1  1
  3  2  1  0
  3  6  1  6
  7  3  1  0
  5  4  1  6
  8  4  1  1
  7  8  1  6
M  END
$$$$
