
     RDKit          3D

  8  7  0  0  0  0  0  0  0  0999 V2000
   -4.0005    2.6273    3.7497 O   0  0  0  0  0  0  0  0  0  0  0  0
   -5.0071    3.4436    3.2199 C   0  0  0  0  0  0  0  0  0  0  0  0
   -4.3205    4.3763    2.2367 C   0  0  2  0  0  0  0  0  0  0  0  0
   -1.1660    6.2990    2.0535 O   0  0  0  0  0  0  0  0  0  0  0  0
   -0.7292    7.1301    1.0520 C   0  0  0  0  0  0  0  0  0  0  0  0
   -4.1487    3.7542    1.0203 O   0  0  0  0  0  0  0  0  0  0  0  0
   -2.9821    4.8604    2.7992 C   0  0  0  0  0  0  0  0  0  0  0  0
   -2.4025    5.7917    1.7952 C   0  0  0  0  0  0  0  0  0  0  0  0
  2  1  1  1
  3  2  1  0
  3  6  1  6
  7  3  1  0
  5  4  1  6
  8  4  1  1
  7  8  1  6
M  END
$$$$
