
     RDKit          3D

  8  7  0  0  0  0  0  0  0  0999 V2000
   -8.8334    4.4363   -2.1820 O   0  0  0  0  0  0  0  0  0  0  0  0
   -8.3114    3.1607   -2.4283 C   0  0  0  0  0  0  0  0  0  0  0  0
   -6.8636    3.2012   -1.9698 C   0  0  2  0  0  0  0  0  0  0  0  0
   -3.8284    5.0301   -3.0325 O   0  0  0  0  0  0  0  0  0  0  0  0
   -2.5373    4.5690   -3.1047 C   0  0  0  0  0  0  0  0  0  0  0  0
   -6.7932    3.2389   -0.5952 O   0  0  0  0  0  0  0  0  0  0  0  0
   -6.1363    4.3966   -2.5894 C   0  0  0  0  0  0  0  0  0  0  0  0
   -4.6824    4.0875   -2.5474 C   0  0  0  0  0  0  0  0  0  0  0  0
  2  1  1  1
  3  2  1  0
  3  6  1  1
  7  3  1  0
  5  4  1  6
  8  4  1  1
  7  8  1  6
M  END
$$$$
