
     RDKit          3D

  8  7  0  0  0  0  0  0  0  0999 V2000
    5.5356    5.3174    3.1302 O   0  0  0  0  0  0  0  0  0  0  0  0
    6.7046    5.3738    2.3782 C   0  0  0  0  0  0  0  0  0  0  0  0
    6.4247    6.1951    1.1238 C   0  0  2  0  0  0  0  0  0  0  0  0
    5.1352    5.1056   -2.1082 O   0  0  0  0  0  0  0  0  0  0  0  0
    5.8088    5.7150   -3.1721 C   0  0  0  0  0  0  0  0  0  0  0  0
    5.2468    6.9054    1.2742 O   0  0  0  0  0  0  0  0  0  0  0  0
    6.2908    5.2866   -0.0835 C   0  0  0  0  0  0  0  0  0  0  0  0
    5.1991    5.8569   -0.9619 C   0  0  0  0  0  0  0  0  0  0  0  0
  2  1  1  0
  3  2  1  0
  3  6  1  1
  7  3  1  0
  4  5  1  0
  8  4  1  0
  7  8  1  0
M  END
$$$$
