
     RDKit          3D

  8  7  0  0  0  0  0  0  0  0999 V2000
    8.1229   -1.3662   -2.0332 O   0  0  0  0  0  0  0  0  0  0  0  0
    7.5012   -2.1234   -1.0455 C   0  0  0  0  0  0  0  0  0  0  0  0
    7.4946   -3.5806   -1.4961 C   0  0  2  0  0  0  0  0  0  0  0  0
    6.8535   -5.4750    1.5534 O   0  0  0  0  0  0  0  0  0  0  0  0
    6.3980   -6.7608    1.2438 C   0  0  0  0  0  0  0  0  0  0  0  0
    6.2445   -3.9221   -1.9811 O   0  0  0  0  0  0  0  0  0  0  0  0
    7.8282   -4.4948   -0.3326 C   0  0  0  0  0  0  0  0  0  0  0  0
    6.5978   -4.5823    0.5432 C   0  0  0  0  0  0  0  0  0  0  0  0
  2  1  1  0
  3  2  1  0
  3  6  1  1
  7  3  1  0
  4  5  1  0
  8  4  1  0
  7  8  1  0
M  END
$$$$
