
     RDKit          3D

  8  7  0  0  0  0  0  0  0  0999 V2000
   -7.5798    1.8880    0.1477 O   0  0  0  0  0  0  0  0  0  0  0  0
   -6.5728    2.0825    1.1008 C   0  0  0  0  0  0  0  0  0  0  0  0
   -5.8017    3.3134    0.6552 C   0  0  2  0  0  0  0  0  0  0  0  0
   -4.1073    4.8389   -2.0377 O   0  0  0  0  0  0  0  0  0  0  0  0
   -3.8498    6.1608   -1.7714 C   0  0  0  0  0  0  0  0  0  0  0  0
   -6.6137    4.4253    0.6751 O   0  0  0  0  0  0  0  0  0  0  0  0
   -5.2010    3.0976   -0.7357 C   0  0  0  0  0  0  0  0  0  0  0  0
   -5.2499    4.4085   -1.4360 C   0  0  0  0  0  0  0  0  0  0  0  0
  2  1  1  1
  3  2  1  0
  3  6  1  6
  7  3  1  0
  5  4  1  6
  8  4  1  1
  7  8  1  6
M  END
$$$$
