
     RDKit          3D

  8  7  0  0  0  0  0  0  0  0999 V2000
   -5.8607    3.2587    2.4883 O   0  0  0  0  0  0  0  0  0  0  0  0
   -4.9471    3.7894    1.5833 C   0  0  0  0  0  0  0  0  0  0  0  0
   -5.6874    4.1008    0.2867 C   0  0  2  0  0  0  0  0  0  0  0  0
   -4.6505    2.9207   -3.0045 O   0  0  0  0  0  0  0  0  0  0  0  0
   -5.3275    2.4719   -4.1434 C   0  0  0  0  0  0  0  0  0  0  0  0
   -6.7576    3.2375    0.1317 O   0  0  0  0  0  0  0  0  0  0  0  0
   -4.7601    3.9401   -0.9029 C   0  0  0  0  0  0  0  0  0  0  0  0
   -5.5051    3.1494   -1.9557 C   0  0  0  0  0  0  0  0  0  0  0  0
  2  1  1  0
  3  2  1  0
  3  6  1  6
  7  3  1  0
  4  5  1  0
  8  4  1  0
  7  8  1  0
M  END
$$$$
