
     RDKit          3D

  8  7  0  0  0  0  0  0  0  0999 V2000
    8.2809   -1.6603   -2.1412 O   0  0  0  0  0  0  0  0  0  0  0  0
    7.9751   -3.0123   -2.3380 C   0  0  0  0  0  0  0  0  0  0  0  0
    6.4631   -3.0890   -2.4654 C   0  0  2  0  0  0  0  0  0  0  0  0
    3.9176   -3.4530   -3.4861 O   0  0  0  0  0  0  0  0  0  0  0  0
    2.5741   -3.4223   -3.2055 C   0  0  0  0  0  0  0  0  0  0  0  0
    5.8593   -2.7078   -1.2881 O   0  0  0  0  0  0  0  0  0  0  0  0
    6.0284   -4.4984   -2.8736 C   0  0  0  0  0  0  0  0  0  0  0  0
    4.5415   -4.5051   -2.8887 C   0  0  0  0  0  0  0  0  0  0  0  0
  2  1  1  1
  3  2  1  0
  3  6  1  1
  7  3  1  0
  5  4  1  6
  8  4  1  1
  7  8  1  6
M  END
$$$$
