
     RDKit          3D

  8  7  0  0  0  0  0  0  0  0999 V2000
    6.2553    0.1146   -0.7467 O   0  0  0  0  0  0  0  0  0  0  0  0
    5.0079    0.2049   -1.3561 C   0  0  0  0  0  0  0  0  0  0  0  0
    4.0352    0.8278   -0.3601 C   0  0  2  0  0  0  0  0  0  0  0  0
    3.4895    4.2299    0.8293 O   0  0  0  0  0  0  0  0  0  0  0  0
    2.4220    5.1098    0.6221 C   0  0  0  0  0  0  0  0  0  0  0  0
    2.7400    0.7308   -0.8371 O   0  0  0  0  0  0  0  0  0  0  0  0
    4.3636    2.2932   -0.1469 C   0  0  0  0  0  0  0  0  0  0  0  0
    3.1605    2.9378    0.5054 C   0  0  0  0  0  0  0  0  0  0  0  0
  2  1  1  0
  3  2  1  0
  3  6  1  6
  7  3  1  0
  4  5  1  0
  8  4  1  0
  7  8  1  0
M  END
$$$$
