
     RDKit          3D

  8  7  0  0  0  0  0  0  0  0999 V2000
    5.2730    0.7824   -1.0915 O   0  0  0  0  0  0  0  0  0  0  0  0
    3.9049    0.8574   -0.8503 C   0  0  0  0  0  0  0  0  0  0  0  0
    3.4806    2.3180   -0.9644 C   0  0  2  0  0  0  0  0  0  0  0  0
    1.2579    4.2899    0.1377 O   0  0  0  0  0  0  0  0  0  0  0  0
    0.6790    4.6514    1.3588 C   0  0  0  0  0  0  0  0  0  0  0  0
    4.5239    3.0781   -1.4627 O   0  0  0  0  0  0  0  0  0  0  0  0
    3.0922    2.8631    0.3968 C   0  0  0  0  0  0  0  0  0  0  0  0
    2.6286    4.2895    0.1991 C   0  0  0  0  0  0  0  0  0  0  0  0
  2  1  1  0
  3  2  1  0
  3  6  1  1
  7  3  1  0
  4  5  1  0
  8  4  1  0
  7  8  1  0
M  END
$$$$
