
     RDKit          3D

  8  7  0  0  0  0  0  0  0  0999 V2000
   -4.0612    3.6028    3.6444 O   0  0  0  0  0  0  0  0  0  0  0  0
   -2.8914    3.5887    2.8753 C   0  0  0  0  0  0  0  0  0  0  0  0
   -3.1278    4.5578    1.7294 C   0  0  2  0  0  0  0  0  0  0  0  0
   -3.3202    4.2136   -1.1154 O   0  0  0  0  0  0  0  0  0  0  0  0
   -3.5749    4.3028   -2.4614 C   0  0  0  0  0  0  0  0  0  0  0  0
   -3.0900    5.8581    2.1810 O   0  0  0  0  0  0  0  0  0  0  0  0
   -4.4582    4.2565    1.0357 C   0  0  0  0  0  0  0  0  0  0  0  0
   -4.3320    4.7328   -0.3673 C   0  0  0  0  0  0  0  0  0  0  0  0
  2  1  1  1
  3  2  1  0
  3  6  1  1
  7  3  1  0
  5  4  1  6
  8  4  1  1
  7  8  1  6
M  END
$$$$
