
     RDKit          3D

  8  7  0  0  0  0  0  0  0  0999 V2000
   -5.4614   -6.4765    2.0622 O   0  0  0  0  0  0  0  0  0  0  0  0
   -6.3878   -5.7252    1.3460 C   0  0  0  0  0  0  0  0  0  0  0  0
   -5.8914   -5.6012   -0.0909 C   0  0  2  0  0  0  0  0  0  0  0  0
   -4.1511   -2.4014   -0.2881 O   0  0  0  0  0  0  0  0  0  0  0  0
   -4.4836   -1.1665   -0.8550 C   0  0  0  0  0  0  0  0  0  0  0  0
   -5.5138   -6.8425   -0.5717 O   0  0  0  0  0  0  0  0  0  0  0  0
   -4.6944   -4.6720   -0.1580 C   0  0  0  0  0  0  0  0  0  0  0  0
   -5.2226   -3.2579   -0.2577 C   0  0  0  0  0  0  0  0  0  0  0  0
  2  1  1  0
  3  2  1  0
  3  6  1  1
  7  3  1  0
  4  5  1  0
  8  4  1  0
  7  8  1  0
M  END
$$$$
