
     RDKit          3D

  8  7  0  0  0  0  0  0  0  0999 V2000
    5.3306   -1.1289   -3.5847 O   0  0  0  0  0  0  0  0  0  0  0  0
    4.6373   -2.0833   -2.8473 C   0  0  0  0  0  0  0  0  0  0  0  0
    5.6407   -2.8355   -1.9791 C   0  0  2  0  0  0  0  0  0  0  0  0
    6.2529   -6.3710   -1.3212 O   0  0  0  0  0  0  0  0  0  0  0  0
    7.4884   -7.0256   -1.2756 C   0  0  0  0  0  0  0  0  0  0  0  0
    6.9311   -2.4697   -2.3193 O   0  0  0  0  0  0  0  0  0  0  0  0
    5.4939   -4.3320   -2.1780 C   0  0  0  0  0  0  0  0  0  0  0  0
    6.3842   -5.0144   -1.1630 C   0  0  0  0  0  0  0  0  0  0  0  0
  2  1  1  0
  3  2  1  0
  3  6  1  6
  7  3  1  0
  4  5  1  0
  8  4  1  0
  7  8  1  0
M  END
$$$$
