
     RDKit          3D

  8  7  0  0  0  0  0  0  0  0999 V2000
    1.8521   -8.1758    2.7045 O   0  0  0  0  0  0  0  0  0  0  0  0
    2.8280   -7.8281    1.7628 C   0  0  0  0  0  0  0  0  0  0  0  0
    2.8830   -6.3098    1.7526 C   0  0  2  0  0  0  0  0  0  0  0  0
    4.8221   -3.9418    2.7686 O   0  0  0  0  0  0  0  0  0  0  0  0
    5.0100   -2.6016    2.9995 C   0  0  0  0  0  0  0  0  0  0  0  0
    3.7629   -5.8649    0.7913 O   0  0  0  0  0  0  0  0  0  0  0  0
    3.2649   -5.7761    3.1351 C   0  0  0  0  0  0  0  0  0  0  0  0
    3.5319   -4.3216    2.9785 C   0  0  0  0  0  0  0  0  0  0  0  0
  2  1  1  1
  3  2  1  0
  3  6  1  6
  7  3  1  0
  5  4  1  6
  8  4  1  1
  7  8  1  6
M  END
$$$$
