
     RDKit          3D

  8  7  0  0  0  0  0  0  0  0999 V2000
    7.1635    5.6116   -1.4899 O   0  0  0  0  0  0  0  0  0  0  0  0
    6.2813    6.6392   -1.1719 C   0  0  0  0  0  0  0  0  0  0  0  0
    5.3675    6.1528   -0.0519 C   0  0  2  0  0  0  0  0  0  0  0  0
    2.6026    3.7803    0.0943 O   0  0  0  0  0  0  0  0  0  0  0  0
    2.0190    3.0382    1.1265 C   0  0  0  0  0  0  0  0  0  0  0  0
    6.1230    5.6563    0.9957 O   0  0  0  0  0  0  0  0  0  0  0  0
    4.4555    5.0502   -0.5554 C   0  0  0  0  0  0  0  0  0  0  0  0
    3.5064    4.6974    0.5686 C   0  0  0  0  0  0  0  0  0  0  0  0
  2  1  1  0
  3  2  1  0
  3  6  1  1
  7  3  1  0
  4  5  1  0
  8  4  1  0
  7  8  1  0
M  END
$$$$
