
     RDKit          3D

  8  7  0  0  0  0  0  0  0  0999 V2000
    1.2613   -8.1042    2.1632 O   0  0  0  0  0  0  0  0  0  0  0  0
    2.0854   -7.9251    1.0567 C   0  0  0  0  0  0  0  0  0  0  0  0
    3.4312   -7.3994    1.5454 C   0  0  2  0  0  0  0  0  0  0  0  0
    6.3986   -7.1477   -0.5169 O   0  0  0  0  0  0  0  0  0  0  0  0
    7.2382   -6.0297   -0.5602 C   0  0  0  0  0  0  0  0  0  0  0  0
    3.2392   -6.3602    2.4385 O   0  0  0  0  0  0  0  0  0  0  0  0
    4.2540   -6.8882    0.3781 C   0  0  0  0  0  0  0  0  0  0  0  0
    5.7019   -7.2216    0.6628 C   0  0  0  0  0  0  0  0  0  0  0  0
  2  1  1  0
  3  2  1  0
  3  6  1  1
  7  3  1  0
  4  5  1  0
  8  4  1  0
  7  8  1  0
M  END
$$$$
