
     RDKit          3D

  8  7  0  0  0  0  0  0  0  0999 V2000
    7.5203   -6.9290    1.2561 O   0  0  0  0  0  0  0  0  0  0  0  0
    6.2284   -7.2929    0.8576 C   0  0  0  0  0  0  0  0  0  0  0  0
    6.0523   -6.7504   -0.5506 C   0  0  2  0  0  0  0  0  0  0  0  0
    4.1416   -4.8790   -2.3320 O   0  0  0  0  0  0  0  0  0  0  0  0
    3.9182   -4.0391   -3.3947 C   0  0  0  0  0  0  0  0  0  0  0  0
    7.1825   -6.9824   -1.3023 O   0  0  0  0  0  0  0  0  0  0  0  0
    5.7146   -5.2582   -0.5139 C   0  0  0  0  0  0  0  0  0  0  0  0
    5.4367   -4.8432   -1.9145 C   0  0  0  0  0  0  0  0  0  0  0  0
  2  1  1  1
  3  2  1  0
  3  6  1  6
  7  3  1  0
  5  4  1  6
  8  4  1  1
  7  8  1  6
M  END
$$$$
