
     RDKit          3D

  8  7  0  0  0  0  0  0  0  0999 V2000
    2.5577    4.9609    1.0924 O   0  0  0  0  0  0  0  0  0  0  0  0
    3.8990    5.0984    0.7154 C   0  0  0  0  0  0  0  0  0  0  0  0
    4.4261    3.6886    0.5085 C   0  0  2  0  0  0  0  0  0  0  0  0
    3.7418    0.8839   -1.8023 O   0  0  0  0  0  0  0  0  0  0  0  0
    4.4115   -0.3080   -1.9260 C   0  0  0  0  0  0  0  0  0  0  0  0
    5.7421    3.7195    0.1044 O   0  0  0  0  0  0  0  0  0  0  0  0
    3.5596    2.9332   -0.5017 C   0  0  0  0  0  0  0  0  0  0  0  0
    4.2807    1.6762   -0.8354 C   0  0  0  0  0  0  0  0  0  0  0  0
  2  1  1  1
  3  2  1  0
  3  6  1  6
  7  3  1  0
  5  4  1  6
  8  4  1  1
  7  8  1  6
M  END
$$$$
