
     RDKit          3D

  8  7  0  0  0  0  0  0  0  0999 V2000
    8.0562   -7.2182   -1.7496 O   0  0  0  0  0  0  0  0  0  0  0  0
    8.5079   -5.8955   -1.6683 C   0  0  0  0  0  0  0  0  0  0  0  0
    7.2629   -5.0255   -1.6334 C   0  0  2  0  0  0  0  0  0  0  0  0
    4.3771   -4.3463   -3.8454 O   0  0  0  0  0  0  0  0  0  0  0  0
    3.6633   -3.1814   -3.9797 C   0  0  0  0  0  0  0  0  0  0  0  0
    6.5809   -5.2057   -0.4508 O   0  0  0  0  0  0  0  0  0  0  0  0
    6.3644   -5.3236   -2.8358 C   0  0  0  0  0  0  0  0  0  0  0  0
    5.3344   -4.2521   -2.8823 C   0  0  0  0  0  0  0  0  0  0  0  0
  2  1  1  1
  3  2  1  0
  3  6  1  1
  7  3  1  0
  5  4  1  6
  8  4  1  1
  7  8  1  6
M  END
$$$$
