
     RDKit          3D

  8  7  0  0  0  0  0  0  0  0999 V2000
    6.7410   -7.3819    0.7366 O   0  0  0  0  0  0  0  0  0  0  0  0
    6.2339   -6.2257    1.3417 C   0  0  0  0  0  0  0  0  0  0  0  0
    5.0800   -5.7633    0.4683 C   0  0  2  0  0  0  0  0  0  0  0  0
    3.7807   -5.1340   -2.5760 O   0  0  0  0  0  0  0  0  0  0  0  0
    3.1105   -4.1729   -3.2912 C   0  0  0  0  0  0  0  0  0  0  0  0
    4.0695   -6.6987    0.4680 O   0  0  0  0  0  0  0  0  0  0  0  0
    5.5637   -5.4778   -0.9553 C   0  0  0  0  0  0  0  0  0  0  0  0
    4.5477   -4.5958   -1.5886 C   0  0  0  0  0  0  0  0  0  0  0  0
  2  1  1  1
  3  2  1  0
  3  6  1  6
  7  3  1  0
  5  4  1  6
  8  4  1  1
  7  8  1  6
M  END
$$$$
