
     RDKit          3D

  8  7  0  0  0  0  0  0  0  0999 V2000
   -4.4268    8.5954   -0.0919 O   0  0  0  0  0  0  0  0  0  0  0  0
   -5.1658    8.3609   -1.2577 C   0  0  0  0  0  0  0  0  0  0  0  0
   -4.4954    7.1888   -1.9540 C   0  0  2  0  0  0  0  0  0  0  0  0
   -3.1706    4.8314   -2.7726 O   0  0  0  0  0  0  0  0  0  0  0  0
   -3.1045    3.6653   -3.4940 C   0  0  0  0  0  0  0  0  0  0  0  0
   -5.2071    6.8210   -3.0739 O   0  0  0  0  0  0  0  0  0  0  0  0
   -4.3389    6.0093   -0.9916 C   0  0  0  0  0  0  0  0  0  0  0  0
   -4.1478    4.7931   -1.8256 C   0  0  0  0  0  0  0  0  0  0  0  0
  2  1  1  1
  3  2  1  0
  3  6  1  6
  7  3  1  0
  5  4  1  6
  8  4  1  1
  7  8  1  6
M  END
$$$$
