
     RDKit          3D

  8  7  0  0  0  0  0  0  0  0999 V2000
   -8.4929    1.3686   -2.4685 O   0  0  0  0  0  0  0  0  0  0  0  0
   -7.7142    2.2629   -3.1959 C   0  0  0  0  0  0  0  0  0  0  0  0
   -6.4663    2.5816   -2.3788 C   0  0  2  0  0  0  0  0  0  0  0  0
   -3.2073    3.7483   -3.1035 O   0  0  0  0  0  0  0  0  0  0  0  0
   -2.7362    5.0430   -3.3454 C   0  0  0  0  0  0  0  0  0  0  0  0
   -6.8171    3.2395   -1.2132 O   0  0  0  0  0  0  0  0  0  0  0  0
   -5.5281    3.4708   -3.1725 C   0  0  0  0  0  0  0  0  0  0  0  0
   -4.3217    3.7484   -2.3029 C   0  0  0  0  0  0  0  0  0  0  0  0
  2  1  1  0
  3  2  1  0
  3  6  1  1
  7  3  1  0
  4  5  1  0
  8  4  1  0
  7  8  1  0
M  END
$$$$
