
     RDKit          3D

  8  7  0  0  0  0  0  0  0  0999 V2000
    7.4733   -4.6373   -3.1616 O   0  0  0  0  0  0  0  0  0  0  0  0
    6.4192   -5.4350   -2.7004 C   0  0  0  0  0  0  0  0  0  0  0  0
    5.1448   -4.6612   -2.9927 C   0  0  2  0  0  0  0  0  0  0  0  0
    3.0741   -2.6736   -2.7043 O   0  0  0  0  0  0  0  0  0  0  0  0
    2.3040   -1.5396   -2.6312 C   0  0  0  0  0  0  0  0  0  0  0  0
    4.5645   -5.1091   -4.1584 O   0  0  0  0  0  0  0  0  0  0  0  0
    5.4317   -3.1596   -3.0645 C   0  0  0  0  0  0  0  0  0  0  0  0
    4.1703   -2.4983   -3.4921 C   0  0  0  0  0  0  0  0  0  0  0  0
  2  1  1  1
  3  2  1  0
  3  6  1  6
  7  3  1  0
  5  4  1  6
  8  4  1  1
  7  8  1  6
M  END
$$$$
