
     RDKit          3D

  8  7  0  0  0  0  0  0  0  0999 V2000
    1.8996    1.8910    0.5996 O   0  0  0  0  0  0  0  0  0  0  0  0
    1.4348    2.6727   -0.4649 C   0  0  0  0  0  0  0  0  0  0  0  0
    0.6146    3.7896    0.1580 C   0  0  2  0  0  0  0  0  0  0  0  0
   -1.5178    5.2051    1.5133 O   0  0  0  0  0  0  0  0  0  0  0  0
   -2.0256    6.2520    2.2418 C   0  0  0  0  0  0  0  0  0  0  0  0
    1.3661    4.9384    0.2654 O   0  0  0  0  0  0  0  0  0  0  0  0
    0.0702    3.3606    1.5224 C   0  0  0  0  0  0  0  0  0  0  0  0
   -0.4999    4.5759    2.1621 C   0  0  0  0  0  0  0  0  0  0  0  0
  2  1  1  1
  3  2  1  0
  3  6  1  1
  7  3  1  0
  5  4  1  6
  8  4  1  1
  7  8  1  6
M  END
$$$$
