
     RDKit          3D

 32 35  0  0  0  0  0  0  0  0999 V2000
   31.2728  -10.4749   12.3073 C   0  0  0  0  0  0  0  0  0  0  0  0
   30.0657  -11.1129   12.1038 C   0  0  0  0  0  0  0  0  0  0  0  0
   29.2006  -11.4627   13.1413 C   0  0  0  0  0  0  0  0  0  0  0  0
   27.3871  -10.2309   16.0282 C   0  0  0  0  0  0  0  0  0  0  0  0
   31.9705  -10.4708    9.8477 C   0  0  2  0  0  0  0  0  0  0  0  0
   32.8166  -11.6450    9.4929 C   0  0  0  0  0  0  0  0  0  0  0  0
   34.8607  -12.8044    9.6012 C   0  0  0  0  0  0  0  0  0  0  0  0
   34.3120  -13.8297    8.8577 C   0  0  0  0  0  0  0  0  0  0  0  0
   33.0068  -13.7490    8.4360 C   0  0  0  0  0  0  0  0  0  0  0  0
   32.2177  -12.6606    8.7367 C   0  0  0  0  0  0  0  0  0  0  0  0
   32.2006   -9.3299    8.9397 C   0  0  0  0  0  0  0  0  0  0  0  0
   31.3362   -9.1110    7.8725 C   0  0  0  0  0  0  0  0  0  0  0  0
   31.5196   -8.0518    6.9995 C   0  0  0  0  0  0  0  0  0  0  0  0
   32.5691   -7.1709    7.1551 C   0  0  0  0  0  0  0  0  0  0  0  0
   33.4220   -7.3947    8.2158 C   0  0  0  0  0  0  0  0  0  0  0  0
   33.2495   -8.4532    9.0989 C   0  0  0  0  0  0  0  0  0  0  0  0
   33.2509   -8.9859   15.1478 C   0  0  0  0  0  0  0  0  0  0  0  0
   34.9668   -7.8432   16.3007 C   0  0  0  0  0  0  0  0  0  0  0  0
   34.2963   -7.9802   17.4949 C   0  0  0  0  0  0  0  0  0  0  0  0
   29.5437  -11.1706   14.4236 C   0  0  0  0  0  0  0  0  0  0  0  0
   30.7368  -10.5371   14.6520 C   0  0  0  0  0  0  0  0  0  0  0  0
   31.6053  -10.1832   13.6333 C   0  0  0  0  0  0  0  0  0  0  0  0
   32.1611  -10.1894   11.2437 N   0  0  0  0  0  0  0  0  0  0  0  0
   28.4626  -11.6063   15.7570 S   0  0  1  0  0  6  0  0  0  0  0  0
   29.2424  -11.9831   16.9622 O   0  0  0  0  0  0  0  0  0  0  0  0
   27.6450  -12.7820   15.3130 O   0  0  0  0  0  0  0  0  0  0  0  0
   34.0905  -11.7471    9.8920 N   0  0  0  0  0  0  0  0  0  0  0  0
   34.7744   -6.3017    8.4586 Cl  0  0  0  0  0  0  0  0  0  0  0  0
   32.8095   -9.4754   13.9155 N   0  0  0  0  0  0  0  0  0  0  0  0
   34.4482   -8.3349   15.1744 N   0  0  0  0  0  0  0  0  0  0  0  0
   33.0846   -8.6417   17.4542 C   0  0  0  0  0  0  0  0  0  0  0  0
   32.6034   -9.1196   16.2942 N   0  0  0  0  0  0  0  0  0  0  0  0
  1  2  2  0
 22  1  1  0
  1 23  1  0
  2  3  1  0
 20  3  2  0
 24  4  1  1
  5  6  1  0
  5 11  1  0
  5 23  1  1
  6 10  1  0
  6 27  2  0
  7  8  2  0
 27  7  1  0
  9  8  1  0
 10  9  2  0
 11 12  2  0
 11 16  1  0
 12 13  1  0
 13 14  2  0
 15 14  1  0
 16 15  2  0
 15 28  1  0
 29 17  1  0
 17 30  2  0
 17 32  1  0
 18 19  2  0
 30 18  1  0
 19 31  1  0
 21 20  1  0
 20 24  1  0
 22 21  2  0
 22 29  1  0
 24 25  2  0
 24 26  2  0
 31 32  2  0
M  END
$$$$
