
     RDKit          3D

 32 35  0  0  0  0  0  0  0  0999 V2000
   31.5878  -12.1185   10.1508 C   0  0  0  0  0  0  0  0  0  0  0  0
   32.5908  -13.0653   10.0936 C   0  0  0  0  0  0  0  0  0  0  0  0
   32.3605  -14.4338   10.2391 C   0  0  0  0  0  0  0  0  0  0  0  0
   30.2006  -16.8595   12.2898 C   0  0  0  0  0  0  0  0  0  0  0  0
   33.1404  -10.0879   10.1009 C   0  0  2  0  0  0  0  0  0  0  0  0
   33.3124   -9.4751   11.4483 C   0  0  0  0  0  0  0  0  0  0  0  0
   32.7374   -9.3391   13.7255 C   0  0  0  0  0  0  0  0  0  0  0  0
   33.6914   -8.3574   13.9017 C   0  0  0  0  0  0  0  0  0  0  0  0
   34.4532   -7.9417   12.8365 C   0  0  0  0  0  0  0  0  0  0  0  0
   34.2917   -8.4823   11.5799 C   0  0  0  0  0  0  0  0  0  0  0  0
   33.3865   -9.1166    9.0171 C   0  0  0  0  0  0  0  0  0  0  0  0
   32.4111   -8.1791    8.6948 C   0  0  0  0  0  0  0  0  0  0  0  0
   32.6055   -7.2522    7.6845 C   0  0  0  0  0  0  0  0  0  0  0  0
   33.7767   -7.2228    6.9571 C   0  0  0  0  0  0  0  0  0  0  0  0
   34.7392   -8.1557    7.2827 C   0  0  0  0  0  0  0  0  0  0  0  0
   34.5571   -9.0909    8.2937 C   0  0  0  0  0  0  0  0  0  0  0  0
   27.9183  -11.8674    9.8530 C   0  0  0  0  0  0  0  0  0  0  0  0
   26.4035  -13.3907    8.8709 C   0  0  0  0  0  0  0  0  0  0  0  0
   25.4474  -12.4079    8.7502 C   0  0  0  0  0  0  0  0  0  0  0  0
   31.0936  -14.8789   10.4489 C   0  0  0  0  0  0  0  0  0  0  0  0
   30.0801  -13.9590   10.5094 C   0  0  0  0  0  0  0  0  0  0  0  0
   30.2927  -12.5983   10.3662 C   0  0  0  0  0  0  0  0  0  0  0  0
   31.8566  -10.7322   10.0648 N   0  0  0  0  0  0  0  0  0  0  0  0
   30.7771  -16.6111   10.6382 S   0  0  1  0  0  6  0  0  0  0  0  0
   31.9907  -17.4035   10.3188 O   0  0  0  0  0  0  0  0  0  0  0  0
   29.6834  -16.9800    9.6813 O   0  0  0  0  0  0  0  0  0  0  0  0
   32.5828   -9.8630   12.5017 N   0  0  0  0  0  0  0  0  0  0  0  0
   36.2491   -8.1607    6.3869 Cl  0  0  0  0  0  0  0  0  0  0  0  0
   29.1992  -11.6845   10.3809 N   0  0  0  0  0  0  0  0  0  0  0  0
   27.5934  -13.1137    9.4062 N   0  0  0  0  0  0  0  0  0  0  0  0
   25.7892  -11.1499    9.2065 C   0  0  0  0  0  0  0  0  0  0  0  0
   27.0015  -10.9200    9.7385 N   0  0  0  0  0  0  0  0  0  0  0  0
  1  2  2  0
 22  1  1  0
  1 23  1  0
  2  3  1  0
 20  3  2  0
 24  4  1  1
  5  6  1  0
  5 11  1  0
  5 23  1  1
  6 10  1  0
  6 27  2  0
  7  8  2  0
 27  7  1  0
  9  8  1  0
 10  9  2  0
 11 12  2  0
 11 16  1  0
 12 13  1  0
 13 14  2  0
 15 14  1  0
 16 15  2  0
 15 28  1  0
 29 17  1  0
 17 30  2  0
 17 32  1  0
 18 19  2  0
 30 18  1  0
 19 31  1  0
 21 20  1  0
 20 24  1  0
 22 21  2  0
 22 29  1  0
 24 25  2  0
 24 26  2  0
 31 32  2  0
M  END
$$$$
