
     RDKit          3D

 32 35  0  0  0  0  0  0  0  0999 V2000
   33.2889   -9.1015   10.4321 C   0  0  0  0  0  0  0  0  0  0  0  0
   32.5301   -8.8923    9.2809 C   0  0  0  0  0  0  0  0  0  0  0  0
   33.0049   -8.0348    8.3172 C   0  0  0  0  0  0  0  0  0  0  0  0
   35.9558   -7.1446    6.2093 C   0  0  0  0  0  0  0  0  0  0  0  0
   31.5054  -10.6646   11.3484 C   0  0  2  0  0  0  0  0  0  0  0  0
   30.9311  -11.0501   12.6639 C   0  0  0  0  0  0  0  0  0  0  0  0
   31.3596  -11.4913   14.9737 C   0  0  0  0  0  0  0  0  0  0  0  0
   30.0443  -11.7979   15.2405 C   0  0  0  0  0  0  0  0  0  0  0  0
   29.1695  -11.7246   14.1916 C   0  0  0  0  0  0  0  0  0  0  0  0
   29.6235  -11.3527   12.9228 C   0  0  0  0  0  0  0  0  0  0  0  0
   31.5639  -11.8688   10.4435 C   0  0  0  0  0  0  0  0  0  0  0  0
   30.6051  -12.0562    9.4755 C   0  0  0  0  0  0  0  0  0  0  0  0
   30.6490  -13.1767    8.6346 C   0  0  0  0  0  0  0  0  0  0  0  0
   31.6505  -14.1153    8.7562 C   0  0  0  0  0  0  0  0  0  0  0  0
   32.6082  -13.9210    9.7282 C   0  0  0  0  0  0  0  0  0  0  0  0
   32.5682  -12.8213   10.5563 C   0  0  0  0  0  0  0  0  0  0  0  0
   36.7115   -8.5389   11.7650 C   0  0  0  0  0  0  0  0  0  0  0  0
   38.6737   -8.0651   10.5703 C   0  0  0  0  0  0  0  0  0  0  0  0
   39.4565   -8.2987   11.6754 C   0  0  0  0  0  0  0  0  0  0  0  0
   34.2114   -7.3915    8.4847 C   0  0  0  0  0  0  0  0  0  0  0  0
   34.9401   -7.6139    9.6271 C   0  0  0  0  0  0  0  0  0  0  0  0
   34.4920   -8.4837   10.6400 C   0  0  0  0  0  0  0  0  0  0  0  0
   32.7818  -10.0327   11.3853 N   0  0  0  0  0  0  0  0  0  0  0  0
   34.7570   -6.3144    7.2206 S   0  0  1  0  0  6  0  0  0  0  0  0
   35.4041   -5.0828    7.7876 O   0  0  0  0  0  0  0  0  0  0  0  0
   33.5963   -5.8870    6.3652 O   0  0  0  0  0  0  0  0  0  0  0  0
   31.7615  -11.1413   13.7570 N   0  0  0  0  0  0  0  0  0  0  0  0
   33.8933  -15.0943    9.9082 Cl  0  0  0  0  0  0  0  0  0  0  0  0
   35.3040   -8.6580   11.7958 N   0  0  0  0  0  0  0  0  0  0  0  0
   37.3389   -8.1807   10.6094 N   0  0  0  0  0  0  0  0  0  0  0  0
   38.8101   -8.6632   12.8493 C   0  0  0  0  0  0  0  0  0  0  0  0
   37.4817   -8.7660   12.8422 N   0  0  0  0  0  0  0  0  0  0  0  0
  1  2  2  0
 22  1  1  0
  1 23  1  0
  2  3  1  0
 20  3  2  0
  4 24  1  6
  5  6  1  0
  5 11  1  0
  5 23  1  1
  6 10  1  0
  6 27  2  0
  7  8  2  0
 27  7  1  0
  9  8  1  0
 10  9  2  0
 11 12  2  0
 11 16  1  0
 12 13  1  0
 13 14  2  0
 15 14  1  0
 16 15  2  0
 15 28  1  0
 29 17  1  0
 17 30  2  0
 17 32  1  0
 18 19  2  0
 30 18  1  0
 19 31  1  0
 21 20  1  0
 24 20  1  1
 22 21  2  0
 22 29  1  0
 24 25  2  0
 24 26  2  0
 31 32  2  0
M  END
$$$$
