
     RDKit          3D

 32 35  0  0  0  0  0  0  0  0999 V2000
   30.9695  -10.3054   11.9554 C   0  0  0  0  0  0  0  0  0  0  0  0
   30.0336  -11.1179   11.3477 C   0  0  0  0  0  0  0  0  0  0  0  0
   28.9749  -11.7127   12.0351 C   0  0  0  0  0  0  0  0  0  0  0  0
   26.0030  -11.7089   13.4999 C   0  0  0  0  0  0  0  0  0  0  0  0
   32.3853   -9.9435    9.8576 C   0  0  2  0  0  0  0  0  0  0  0  0
   33.4661  -10.9641    9.7542 C   0  0  0  0  0  0  0  0  0  0  0  0
   35.5217  -11.8514   10.4765 C   0  0  0  0  0  0  0  0  0  0  0  0
   35.3953  -12.8754    9.5597 C   0  0  0  0  0  0  0  0  0  0  0  0
   34.2928  -12.9318    8.7418 C   0  0  0  0  0  0  0  0  0  0  0  0
   33.2953  -11.9841    8.8095 C   0  0  0  0  0  0  0  0  0  0  0  0
   32.7233   -8.7056    9.1280 C   0  0  0  0  0  0  0  0  0  0  0  0
   33.7852   -7.9177    9.5589 C   0  0  0  0  0  0  0  0  0  0  0  0
   34.1322   -6.7498    8.9006 C   0  0  0  0  0  0  0  0  0  0  0  0
   33.4365   -6.3219    7.7896 C   0  0  0  0  0  0  0  0  0  0  0  0
   32.3847   -7.1087    7.3684 C   0  0  0  0  0  0  0  0  0  0  0  0
   32.0261   -8.2823    8.0195 C   0  0  0  0  0  0  0  0  0  0  0  0
   32.1638   -9.3189   15.3290 C   0  0  0  0  0  0  0  0  0  0  0  0
   32.0244  -10.5013   17.3690 C   0  0  0  0  0  0  0  0  0  0  0  0
   32.9274   -9.6470   17.9601 C   0  0  0  0  0  0  0  0  0  0  0  0
   28.8396  -11.4952   13.3698 C   0  0  0  0  0  0  0  0  0  0  0  0
   29.7557  -10.6919   13.9965 C   0  0  0  0  0  0  0  0  0  0  0  0
   30.8108  -10.0944   13.3281 C   0  0  0  0  0  0  0  0  0  0  0  0
   32.0703   -9.7670   11.2483 N   0  0  0  0  0  0  0  0  0  0  0  0
   27.5048  -12.2407   14.2638 S   0  0  1  0  0  6  0  0  0  0  0  0
   27.5808  -11.8936   15.7048 O   0  0  0  0  0  0  0  0  0  0  0  0
   27.6288  -13.7268   14.1090 O   0  0  0  0  0  0  0  0  0  0  0  0
   34.5497  -10.9311   10.5399 N   0  0  0  0  0  0  0  0  0  0  0  0
   31.4663   -6.6085    5.9581 Cl  0  0  0  0  0  0  0  0  0  0  0  0
   31.7061   -9.2218   14.0122 N   0  0  0  0  0  0  0  0  0  0  0  0
   31.6652  -10.3295   16.0960 N   0  0  0  0  0  0  0  0  0  0  0  0
   33.4249   -8.6275   17.1722 C   0  0  0  0  0  0  0  0  0  0  0  0
   33.0322   -8.4955   15.8939 N   0  0  0  0  0  0  0  0  0  0  0  0
  1  2  2  0
 22  1  1  0
  1 23  1  0
  2  3  1  0
 20  3  2  0
 24  4  1  6
  5  6  1  0
  5 11  1  0
  5 23  1  1
  6 10  1  0
  6 27  2  0
  7  8  2  0
 27  7  1  0
  9  8  1  0
 10  9  2  0
 11 12  2  0
 11 16  1  0
 12 13  1  0
 13 14  2  0
 15 14  1  0
 16 15  2  0
 15 28  1  0
 29 17  1  0
 17 30  2  0
 17 32  1  0
 18 19  2  0
 30 18  1  0
 19 31  1  0
 21 20  1  0
 20 24  1  0
 22 21  2  0
 22 29  1  0
 24 25  2  0
 24 26  2  0
 31 32  2  0
M  END
$$$$
