
     RDKit          3D

 32 35  0  0  0  0  0  0  0  0999 V2000
   29.4490  -12.5198   13.6672 C   0  0  0  0  0  0  0  0  0  0  0  0
   29.3863  -11.1691   14.0086 C   0  0  0  0  0  0  0  0  0  0  0  0
   29.0167  -10.8218   15.2862 C   0  0  0  0  0  0  0  0  0  0  0  0
   26.4809  -11.2922   17.9626 C   0  0  0  0  0  0  0  0  0  0  0  0
   29.9677  -11.9332   11.2483 C   0  0  2  0  0  0  0  0  0  0  0  0
   28.8471  -11.9821   10.2733 C   0  0  0  0  0  0  0  0  0  0  0  0
   27.2648  -13.3549    9.1222 C   0  0  0  0  0  0  0  0  0  0  0  0
   26.7301  -12.2934    8.4278 C   0  0  0  0  0  0  0  0  0  0  0  0
   27.2730  -11.0617    8.6710 C   0  0  0  0  0  0  0  0  0  0  0  0
   28.3198  -10.9239    9.5872 C   0  0  0  0  0  0  0  0  0  0  0  0
   31.2784  -12.1342   10.5314 C   0  0  0  0  0  0  0  0  0  0  0  0
   31.7259  -13.4032   10.2469 C   0  0  0  0  0  0  0  0  0  0  0  0
   32.9467  -13.5984    9.5865 C   0  0  0  0  0  0  0  0  0  0  0  0
   33.7262  -12.5275    9.2068 C   0  0  0  0  0  0  0  0  0  0  0  0
   33.2715  -11.2587    9.4948 C   0  0  0  0  0  0  0  0  0  0  0  0
   32.0726  -11.0631   10.1436 C   0  0  0  0  0  0  0  0  0  0  0  0
   28.1645  -15.7981   14.6247 C   0  0  0  0  0  0  0  0  0  0  0  0
   26.0803  -16.1705   15.6344 C   0  0  0  0  0  0  0  0  0  0  0  0
   26.1294  -17.5130   15.3449 C   0  0  0  0  0  0  0  0  0  0  0  0
   28.7126  -11.7918   16.2158 C   0  0  0  0  0  0  0  0  0  0  0  0
   28.7816  -13.1150   15.8553 C   0  0  0  0  0  0  0  0  0  0  0  0
   29.1555  -13.5160   14.5581 C   0  0  0  0  0  0  0  0  0  0  0  0
   29.8803  -12.8376   12.3458 N   0  0  0  0  0  0  0  0  0  0  0  0
   28.2499  -11.2817   17.8225 S   0  0  1  0  0  6  0  0  0  0  0  0
   28.7285   -9.8884   18.1172 O   0  0  0  0  0  0  0  0  0  0  0  0
   28.8351  -12.2097   18.8511 O   0  0  0  0  0  0  0  0  0  0  0  0
   28.2602  -13.1930    9.9867 N   0  0  0  0  0  0  0  0  0  0  0  0
   34.2377   -9.8777    9.0258 Cl  0  0  0  0  0  0  0  0  0  0  0  0
   29.1995  -14.9074   14.2620 N   0  0  0  0  0  0  0  0  0  0  0  0
   27.0673  -15.3333   15.2861 N   0  0  0  0  0  0  0  0  0  0  0  0
   27.2505  -17.9795   14.6708 C   0  0  0  0  0  0  0  0  0  0  0  0
   28.2072  -17.1115   14.3444 N   0  0  0  0  0  0  0  0  0  0  0  0
  1  2  2  0
 22  1  1  0
  1 23  1  0
  2  3  1  0
 20  3  2  0
  4 24  1  6
  5  6  1  0
  5 11  1  0
  5 23  1  1
  6 10  1  0
  6 27  2  0
  7  8  2  0
 27  7  1  0
  9  8  1  0
 10  9  2  0
 11 12  2  0
 11 16  1  0
 12 13  1  0
 13 14  2  0
 15 14  1  0
 16 15  2  0
 15 28  1  0
 29 17  1  0
 17 30  2  0
 17 32  1  0
 18 19  2  0
 30 18  1  0
 19 31  1  0
 21 20  1  0
 24 20  1  6
 22 21  2  0
 22 29  1  0
 24 25  2  0
 24 26  2  0
 31 32  2  0
M  END
$$$$
