
     RDKit          3D

 32 35  0  0  0  0  0  0  0  0999 V2000
   32.4153  -10.1192   12.7154 C   0  0  0  0  0  0  0  0  0  0  0  0
   31.1162  -10.5750   12.8155 C   0  0  0  0  0  0  0  0  0  0  0  0
   30.3712  -10.5104   13.9936 C   0  0  0  0  0  0  0  0  0  0  0  0
   30.3319  -11.3691   17.5202 C   0  0  0  0  0  0  0  0  0  0  0  0
   32.7196  -10.7585   10.2588 C   0  0  2  0  0  0  0  0  0  0  0  0
   33.8176  -11.5747    9.6681 C   0  0  0  0  0  0  0  0  0  0  0  0
   36.0946  -11.8894    9.1678 C   0  0  0  0  0  0  0  0  0  0  0  0
   35.7975  -13.1193    8.6162 C   0  0  0  0  0  0  0  0  0  0  0  0
   34.4987  -13.5670    8.5972 C   0  0  0  0  0  0  0  0  0  0  0  0
   33.4690  -12.8154    9.1192 C   0  0  0  0  0  0  0  0  0  0  0  0
   32.2243   -9.7353    9.3171 C   0  0  0  0  0  0  0  0  0  0  0  0
   31.0817   -9.9844    8.5644 C   0  0  0  0  0  0  0  0  0  0  0  0
   30.5869   -9.0493    7.6709 C   0  0  0  0  0  0  0  0  0  0  0  0
   31.2096   -7.8319    7.4924 C   0  0  0  0  0  0  0  0  0  0  0  0
   32.3422   -7.5924    8.2425 C   0  0  0  0  0  0  0  0  0  0  0  0
   32.8491   -8.5216    9.1423 C   0  0  0  0  0  0  0  0  0  0  0  0
   35.1330   -8.7334   14.9067 C   0  0  0  0  0  0  0  0  0  0  0  0
   37.2126   -7.8338   15.5741 C   0  0  0  0  0  0  0  0  0  0  0  0
   36.9383   -8.1028   16.8958 C   0  0  0  0  0  0  0  0  0  0  0  0
   30.9329   -9.9765   15.1102 C   0  0  0  0  0  0  0  0  0  0  0  0
   32.2214   -9.5166   15.0367 C   0  0  0  0  0  0  0  0  0  0  0  0
   32.9729   -9.5732   13.8751 C   0  0  0  0  0  0  0  0  0  0  0  0
   33.1705  -10.2554   11.5268 N   0  0  0  0  0  0  0  0  0  0  0  0
   30.0074   -9.8854   16.6174 S   0  0  1  0  0  6  0  0  0  0  0  0
   28.5652   -9.6783   16.3350 O   0  0  0  0  0  0  0  0  0  0  0  0
   30.5278   -8.7170   17.3997 O   0  0  0  0  0  0  0  0  0  0  0  0
   35.0907  -11.1606    9.6747 N   0  0  0  0  0  0  0  0  0  0  0  0
   33.1727   -6.0572    8.0531 Cl  0  0  0  0  0  0  0  0  0  0  0  0
   34.2902   -9.0310   13.8325 N   0  0  0  0  0  0  0  0  0  0  0  0
   36.3295   -8.1447   14.6239 N   0  0  0  0  0  0  0  0  0  0  0  0
   35.7229   -8.6993   17.1687 C   0  0  0  0  0  0  0  0  0  0  0  0
   34.8659   -8.9935   16.1764 N   0  0  0  0  0  0  0  0  0  0  0  0
  1  2  2  0
 22  1  1  0
  1 23  1  0
  2  3  1  0
 20  3  2  0
 24  4  1  1
  5  6  1  0
  5 11  1  0
  5 23  1  1
  6 10  1  0
  6 27  2  0
  7  8  2  0
 27  7  1  0
  9  8  1  0
 10  9  2  0
 11 12  2  0
 11 16  1  0
 12 13  1  0
 13 14  2  0
 15 14  1  0
 16 15  2  0
 15 28  1  0
 29 17  1  0
 17 30  2  0
 17 32  1  0
 18 19  2  0
 30 18  1  0
 19 31  1  0
 21 20  1  0
 20 24  1  0
 22 21  2  0
 22 29  1  0
 24 25  2  0
 24 26  2  0
 31 32  2  0
M  END
$$$$
