
     RDKit          3D

 32 35  0  0  0  0  0  0  0  0999 V2000
   31.5266  -10.6433    9.7396 C   0  0  0  0  0  0  0  0  0  0  0  0
   31.2460   -9.2930    9.5332 C   0  0  0  0  0  0  0  0  0  0  0  0
   32.1199   -8.5378    8.7880 C   0  0  0  0  0  0  0  0  0  0  0  0
   34.0285   -8.3506    5.5854 C   0  0  0  0  0  0  0  0  0  0  0  0
   29.4106  -10.8887   11.1276 C   0  0  2  0  0  0  0  0  0  0  0  0
   29.3467  -11.0836   12.5995 C   0  0  0  0  0  0  0  0  0  0  0  0
   29.8586  -12.5140   14.4449 C   0  0  0  0  0  0  0  0  0  0  0  0
   29.2964  -11.6589   15.3656 C   0  0  0  0  0  0  0  0  0  0  0  0
   28.7546  -10.5005   14.8802 C   0  0  0  0  0  0  0  0  0  0  0  0
   28.7876  -10.2301   13.5091 C   0  0  0  0  0  0  0  0  0  0  0  0
   28.1763  -11.4646   10.4815 C   0  0  0  0  0  0  0  0  0  0  0  0
   27.7672  -12.7424   10.7838 C   0  0  0  0  0  0  0  0  0  0  0  0
   26.6245  -13.2872   10.1822 C   0  0  0  0  0  0  0  0  0  0  0  0
   25.8847  -12.5587    9.2762 C   0  0  0  0  0  0  0  0  0  0  0  0
   26.3004  -11.2788    8.9783 C   0  0  0  0  0  0  0  0  0  0  0  0
   27.4227  -10.7402    9.5672 C   0  0  0  0  0  0  0  0  0  0  0  0
   34.2751  -13.0439    9.7765 C   0  0  0  0  0  0  0  0  0  0  0  0
   36.5355  -12.5429   10.1530 C   0  0  0  0  0  0  0  0  0  0  0  0
   36.8152  -13.8461   10.4874 C   0  0  0  0  0  0  0  0  0  0  0  0
   33.2557   -9.1047    8.2529 C   0  0  0  0  0  0  0  0  0  0  0  0
   33.5100  -10.4364    8.4705 C   0  0  0  0  0  0  0  0  0  0  0  0
   32.6424  -11.2474    9.2274 C   0  0  0  0  0  0  0  0  0  0  0  0
   30.5717  -11.4006   10.4797 N   0  0  0  0  0  0  0  0  0  0  0  0
   34.3247   -8.0879    7.3153 S   0  0  1  0  0  6  0  0  0  0  0  0
   35.7674   -8.4042    7.5904 O   0  0  0  0  0  0  0  0  0  0  0  0
   34.0872   -6.6401    7.6456 O   0  0  0  0  0  0  0  0  0  0  0  0
   29.8748  -12.2298   13.1474 N   0  0  0  0  0  0  0  0  0  0  0  0
   25.3829  -10.3275    7.8321 Cl  0  0  0  0  0  0  0  0  0  0  0  0
   32.9786  -12.6182    9.4103 N   0  0  0  0  0  0  0  0  0  0  0  0
   35.3021  -12.1486    9.8068 N   0  0  0  0  0  0  0  0  0  0  0  0
   35.7637  -14.7528   10.4543 C   0  0  0  0  0  0  0  0  0  0  0  0
   34.5544  -14.3166   10.1044 N   0  0  0  0  0  0  0  0  0  0  0  0
  1  2  2  0
 22  1  1  0
  1 23  1  0
  2  3  1  0
 20  3  2  0
  4 24  1  6
  5  6  1  0
  5 11  1  0
  5 23  1  6
  6 10  1  0
  6 27  2  0
  7  8  2  0
 27  7  1  0
  9  8  1  0
 10  9  2  0
 11 12  2  0
 11 16  1  0
 12 13  1  0
 13 14  2  0
 15 14  1  0
 16 15  2  0
 15 28  1  0
 29 17  1  0
 17 30  2  0
 17 32  1  0
 18 19  2  0
 30 18  1  0
 19 31  1  0
 21 20  1  0
 24 20  1  1
 22 21  2  0
 22 29  1  0
 24 25  2  0
 24 26  2  0
 31 32  2  0
M  END
$$$$
