
     RDKit          3D

 32 35  0  0  0  0  0  0  0  0999 V2000
   31.8019  -10.8504   10.3941 C   0  0  0  0  0  0  0  0  0  0  0  0
   31.3543  -10.6936    9.0976 C   0  0  0  0  0  0  0  0  0  0  0  0
   31.7646   -9.6498    8.2674 C   0  0  0  0  0  0  0  0  0  0  0  0
   34.8443   -7.7447    7.2171 C   0  0  0  0  0  0  0  0  0  0  0  0
   30.3368  -12.8784   10.9201 C   0  0  2  0  0  0  0  0  0  0  0  0
   29.2914  -12.8498   11.9817 C   0  0  0  0  0  0  0  0  0  0  0  0
   27.0554  -13.1164   12.6626 C   0  0  0  0  0  0  0  0  0  0  0  0
   27.4227  -12.8284   13.9615 C   0  0  0  0  0  0  0  0  0  0  0  0
   28.7353  -12.5513   14.2580 C   0  0  0  0  0  0  0  0  0  0  0  0
   29.7102  -12.5521   13.2848 C   0  0  0  0  0  0  0  0  0  0  0  0
   30.8682  -14.2387   10.7051 C   0  0  0  0  0  0  0  0  0  0  0  0
   31.8127  -14.7583   11.5838 C   0  0  0  0  0  0  0  0  0  0  0  0
   32.3344  -16.0299   11.4149 C   0  0  0  0  0  0  0  0  0  0  0  0
   31.9365  -16.8321   10.3662 C   0  0  0  0  0  0  0  0  0  0  0  0
   30.9995  -16.3097    9.4991 C   0  0  0  0  0  0  0  0  0  0  0  0
   30.4681  -15.0359    9.6570 C   0  0  0  0  0  0  0  0  0  0  0  0
   33.2266   -9.0923   13.2080 C   0  0  0  0  0  0  0  0  0  0  0  0
   32.5442   -6.9353   13.8870 C   0  0  0  0  0  0  0  0  0  0  0  0
   33.0951   -7.1215   15.1347 C   0  0  0  0  0  0  0  0  0  0  0  0
   32.6479   -8.7303    8.7381 C   0  0  0  0  0  0  0  0  0  0  0  0
   33.1075   -8.8639   10.0219 C   0  0  0  0  0  0  0  0  0  0  0  0
   32.7102   -9.8942   10.8573 C   0  0  0  0  0  0  0  0  0  0  0  0
   31.3208  -11.8804   11.2362 N   0  0  0  0  0  0  0  0  0  0  0  0
   33.1818   -7.3958    7.7033 S   0  0  1  0  0  6  0  0  0  0  0  0
   33.0407   -6.0974    8.4081 O   0  0  0  0  0  0  0  0  0  0  0  0
   32.3100   -7.3903    6.4836 O   0  0  0  0  0  0  0  0  0  0  0  0
   28.0062  -13.1164   11.7182 N   0  0  0  0  0  0  0  0  0  0  0  0
   30.4588  -17.2908    8.1472 Cl  0  0  0  0  0  0  0  0  0  0  0  0
   33.2586  -10.0233   12.1663 N   0  0  0  0  0  0  0  0  0  0  0  0
   32.6159   -7.8978   12.9663 N   0  0  0  0  0  0  0  0  0  0  0  0
   33.7107   -8.3359   15.3665 C   0  0  0  0  0  0  0  0  0  0  0  0
   33.7574   -9.2749   14.4064 N   0  0  0  0  0  0  0  0  0  0  0  0
  1  2  2  0
 22  1  1  0
  1 23  1  0
  2  3  1  0
 20  3  2  0
 24  4  1  6
  5  6  1  0
  5 11  1  0
  5 23  1  1
  6 10  1  0
  6 27  2  0
  7  8  2  0
 27  7  1  0
  9  8  1  0
 10  9  2  0
 11 12  2  0
 11 16  1  0
 12 13  1  0
 13 14  2  0
 15 14  1  0
 16 15  2  0
 15 28  1  0
 29 17  1  0
 17 30  2  0
 17 32  1  0
 18 19  2  0
 30 18  1  0
 19 31  1  0
 21 20  1  0
 20 24  1  0
 22 21  2  0
 22 29  1  0
 24 25  2  0
 24 26  2  0
 31 32  2  0
M  END
$$$$
