
     RDKit          3D

 32 35  0  0  0  0  0  0  0  0999 V2000
   31.1122  -10.7798   11.5848 C   0  0  0  0  0  0  0  0  0  0  0  0
   29.9688  -11.3035   11.0156 C   0  0  0  0  0  0  0  0  0  0  0  0
   28.9353  -11.8734   11.7600 C   0  0  0  0  0  0  0  0  0  0  0  0
   27.7901  -11.8844   15.6730 C   0  0  0  0  0  0  0  0  0  0  0  0
   32.2655  -10.2317    9.3699 C   0  0  2  0  0  0  0  0  0  0  0  0
   32.7636  -11.5574    8.9064 C   0  0  0  0  0  0  0  0  0  0  0  0
   32.6930  -13.3576    7.3934 C   0  0  0  0  0  0  0  0  0  0  0  0
   33.7351  -13.9592    8.0696 C   0  0  0  0  0  0  0  0  0  0  0  0
   34.2852  -13.3452    9.1688 C   0  0  0  0  0  0  0  0  0  0  0  0
   33.8219  -12.1302    9.6234 C   0  0  0  0  0  0  0  0  0  0  0  0
   33.0624   -9.1186    8.8179 C   0  0  0  0  0  0  0  0  0  0  0  0
   32.4806   -7.8657    8.6568 C   0  0  0  0  0  0  0  0  0  0  0  0
   33.1959   -6.7975    8.1423 C   0  0  0  0  0  0  0  0  0  0  0  0
   34.5163   -6.9351    7.7688 C   0  0  0  0  0  0  0  0  0  0  0  0
   35.0862   -8.1806    7.9317 C   0  0  0  0  0  0  0  0  0  0  0  0
   34.3800   -9.2605    8.4465 C   0  0  0  0  0  0  0  0  0  0  0  0
   32.3271   -9.3881   14.7219 C   0  0  0  0  0  0  0  0  0  0  0  0
   33.6505   -8.0864   16.1827 C   0  0  0  0  0  0  0  0  0  0  0  0
   32.5325   -7.6599   16.8631 C   0  0  0  0  0  0  0  0  0  0  0  0
   29.0388  -11.9266   13.1141 C   0  0  0  0  0  0  0  0  0  0  0  0
   30.1640  -11.4131   13.7035 C   0  0  0  0  0  0  0  0  0  0  0  0
   31.1973  -10.8440   12.9786 C   0  0  0  0  0  0  0  0  0  0  0  0
   32.1738  -10.2662   10.8034 N   0  0  0  0  0  0  0  0  0  0  0  0
   27.7406  -12.6468   14.0798 S   0  0  1  0  0  6  0  0  0  0  0  0
   27.8855  -14.1228   14.1349 O   0  0  0  0  0  0  0  0  0  0  0  0
   26.4394  -12.3051   13.4180 O   0  0  0  0  0  0  0  0  0  0  0  0
   32.2447  -12.1756    7.8382 N   0  0  0  0  0  0  0  0  0  0  0  0
   36.7651   -8.4090    7.4717 Cl  0  0  0  0  0  0  0  0  0  0  0  0
   32.3229  -10.2726   13.6400 N   0  0  0  0  0  0  0  0  0  0  0  0
   33.5347   -8.9220   15.1494 N   0  0  0  0  0  0  0  0  0  0  0  0
   31.3155   -8.1394   16.4199 C   0  0  0  0  0  0  0  0  0  0  0  0
   31.2501   -8.9802   15.3737 N   0  0  0  0  0  0  0  0  0  0  0  0
  1  2  2  0
 22  1  1  0
  1 23  1  0
  2  3  1  0
 20  3  2  0
 24  4  1  1
  5  6  1  0
  5 11  1  0
  5 23  1  1
  6 10  1  0
  6 27  2  0
  7  8  2  0
 27  7  1  0
  9  8  1  0
 10  9  2  0
 11 12  2  0
 11 16  1  0
 12 13  1  0
 13 14  2  0
 15 14  1  0
 16 15  2  0
 15 28  1  0
 29 17  1  0
 17 30  2  0
 17 32  1  0
 18 19  2  0
 30 18  1  0
 19 31  1  0
 21 20  1  0
 20 24  1  0
 22 21  2  0
 22 29  1  0
 24 25  2  0
 24 26  2  0
 31 32  2  0
M  END
$$$$
