
     RDKit          3D

 32 35  0  0  0  0  0  0  0  0999 V2000
   35.8661   -8.1360   13.4860 C   0  0  0  0  0  0  0  0  0  0  0  0
   34.7187   -8.8188   13.8887 C   0  0  0  0  0  0  0  0  0  0  0  0
   34.3453   -8.7714   15.2107 C   0  0  0  0  0  0  0  0  0  0  0  0
   33.2796   -6.8314   17.9912 C   0  0  0  0  0  0  0  0  0  0  0  0
   35.3456   -8.6277   11.0464 C   0  0  2  0  0  0  0  0  0  0  0  0
   35.8919   -9.7158   10.1941 C   0  0  0  0  0  0  0  0  0  0  0  0
   35.4171  -11.6944    8.9399 C   0  0  0  0  0  0  0  0  0  0  0  0
   36.7341  -11.8807    8.5853 C   0  0  0  0  0  0  0  0  0  0  0  0
   37.6335  -10.9609    9.0501 C   0  0  0  0  0  0  0  0  0  0  0  0
   37.2012   -9.8951    9.8448 C   0  0  0  0  0  0  0  0  0  0  0  0
   34.9388   -7.4591   10.1854 C   0  0  0  0  0  0  0  0  0  0  0  0
   35.8206   -6.4299    9.9515 C   0  0  0  0  0  0  0  0  0  0  0  0
   35.4476   -5.3367    9.1575 C   0  0  0  0  0  0  0  0  0  0  0  0
   34.1925   -5.2662    8.5932 C   0  0  0  0  0  0  0  0  0  0  0  0
   33.3141   -6.3012    8.8315 C   0  0  0  0  0  0  0  0  0  0  0  0
   33.6771   -7.3768    9.6112 C   0  0  0  0  0  0  0  0  0  0  0  0
   39.1134   -7.1676   14.3291 C   0  0  0  0  0  0  0  0  0  0  0  0
   41.4373   -6.8504   14.2989 C   0  0  0  0  0  0  0  0  0  0  0  0
   41.6534   -8.0400   14.9522 C   0  0  0  0  0  0  0  0  0  0  0  0
   35.0921   -8.0611   16.1247 C   0  0  0  0  0  0  0  0  0  0  0  0
   36.2179   -7.3972   15.7036 C   0  0  0  0  0  0  0  0  0  0  0  0
   36.6373   -7.4186   14.3593 C   0  0  0  0  0  0  0  0  0  0  0  0
   36.1924   -8.1737   12.0984 N   0  0  0  0  0  0  0  0  0  0  0  0
   34.5615   -8.0420   17.7902 S   0  0  1  0  0  6  0  0  0  0  0  0
   35.6845   -7.6850   18.7220 O   0  0  0  0  0  0  0  0  0  0  0  0
   34.0335   -9.3943   18.1828 O   0  0  0  0  0  0  0  0  0  0  0  0
   35.0362  -10.6716    9.6970 N   0  0  0  0  0  0  0  0  0  0  0  0
   31.7129   -6.2420    8.1292 Cl  0  0  0  0  0  0  0  0  0  0  0  0
   37.8178   -6.7077   14.0033 N   0  0  0  0  0  0  0  0  0  0  0  0
   40.2042   -6.4226   13.9941 N   0  0  0  0  0  0  0  0  0  0  0  0
   40.5370   -8.7939   15.2904 C   0  0  0  0  0  0  0  0  0  0  0  0
   39.3306   -8.3297   14.9676 N   0  0  0  0  0  0  0  0  0  0  0  0
  1  2  2  0
 22  1  1  0
  1 23  1  0
  2  3  1  0
 20  3  2  0
  4 24  1  6
  5  6  1  0
  5 11  1  0
  5 23  1  1
  6 10  1  0
  6 27  2  0
  7  8  2  0
 27  7  1  0
  9  8  1  0
 10  9  2  0
 11 12  2  0
 11 16  1  0
 12 13  1  0
 13 14  2  0
 15 14  1  0
 16 15  2  0
 15 28  1  0
 29 17  1  0
 17 30  2  0
 17 32  1  0
 18 19  2  0
 30 18  1  0
 19 31  1  0
 21 20  1  0
 24 20  1  6
 22 21  2  0
 22 29  1  0
 24 25  2  0
 24 26  2  0
 31 32  2  0
M  END
$$$$
