
     RDKit          3D

 32 35  0  0  0  0  0  0  0  0999 V2000
   30.4602  -11.8367   10.6275 C   0  0  0  0  0  0  0  0  0  0  0  0
   31.1340  -12.5891   11.5685 C   0  0  0  0  0  0  0  0  0  0  0  0
   30.5398  -13.6281   12.2858 C   0  0  0  0  0  0  0  0  0  0  0  0
   28.0506  -16.5076   11.7963 C   0  0  0  0  0  0  0  0  0  0  0  0
   32.4319  -10.3085   10.0679 C   0  0  2  0  0  0  0  0  0  0  0  0
   32.5954   -9.6220   11.3803 C   0  0  0  0  0  0  0  0  0  0  0  0
   31.6750   -8.5275   13.2484 C   0  0  0  0  0  0  0  0  0  0  0  0
   32.9368   -8.4139   13.7962 C   0  0  0  0  0  0  0  0  0  0  0  0
   34.0252   -8.9117   13.1214 C   0  0  0  0  0  0  0  0  0  0  0  0
   33.8940   -9.5295   11.8972 C   0  0  0  0  0  0  0  0  0  0  0  0
   32.9150   -9.4787    8.9468 C   0  0  0  0  0  0  0  0  0  0  0  0
   32.2437   -8.3065    8.6155 C   0  0  0  0  0  0  0  0  0  0  0  0
   32.6667   -7.5022    7.5706 C   0  0  0  0  0  0  0  0  0  0  0  0
   33.7726   -7.8332    6.8162 C   0  0  0  0  0  0  0  0  0  0  0  0
   34.4329   -8.9971    7.1510 C   0  0  0  0  0  0  0  0  0  0  0  0
   34.0193   -9.8129    8.1966 C   0  0  0  0  0  0  0  0  0  0  0  0
   27.0547  -11.0179    9.4882 C   0  0  0  0  0  0  0  0  0  0  0  0
   25.0915  -10.9020   10.7967 C   0  0  0  0  0  0  0  0  0  0  0  0
   24.4281  -10.2302    9.7951 C   0  0  0  0  0  0  0  0  0  0  0  0
   29.2337  -13.9313   12.0633 C   0  0  0  0  0  0  0  0  0  0  0  0
   28.5429  -13.1993   11.1338 C   0  0  0  0  0  0  0  0  0  0  0  0
   29.1186  -12.1662   10.4138 C   0  0  0  0  0  0  0  0  0  0  0  0
   31.0678  -10.7468    9.9608 N   0  0  0  0  0  0  0  0  0  0  0  0
   28.4576  -15.2446   12.9629 S   0  0  1  0  0  6  0  0  0  0  0  0
   27.2796  -14.7417   13.7125 O   0  0  0  0  0  0  0  0  0  0  0  0
   29.4635  -15.7862   13.9339 O   0  0  0  0  0  0  0  0  0  0  0  0
   31.5508   -9.1291   12.0573 N   0  0  0  0  0  0  0  0  0  0  0  0
   35.8475   -9.4639    6.2217 Cl  0  0  0  0  0  0  0  0  0  0  0  0
   28.3751  -11.4698    9.4172 N   0  0  0  0  0  0  0  0  0  0  0  0
   26.3614  -11.2762   10.6331 N   0  0  0  0  0  0  0  0  0  0  0  0
   25.1417   -9.9748    8.6405 C   0  0  0  0  0  0  0  0  0  0  0  0
   26.4200  -10.3722    8.5230 N   0  0  0  0  0  0  0  0  0  0  0  0
  1  2  2  0
 22  1  1  0
  1 23  1  0
  2  3  1  0
 20  3  2  0
 24  4  1  6
  5  6  1  0
  5 11  1  0
  5 23  1  6
  6 10  1  0
  6 27  2  0
  7  8  2  0
 27  7  1  0
  9  8  1  0
 10  9  2  0
 11 12  2  0
 11 16  1  0
 12 13  1  0
 13 14  2  0
 15 14  1  0
 16 15  2  0
 15 28  1  0
 29 17  1  0
 17 30  2  0
 17 32  1  0
 18 19  2  0
 30 18  1  0
 19 31  1  0
 21 20  1  0
 20 24  1  0
 22 21  2  0
 22 29  1  0
 24 25  2  0
 24 26  2  0
 31 32  2  0
M  END
$$$$
