
     RDKit          3D

 32 35  0  0  0  0  0  0  0  0999 V2000
   32.1508  -10.0020   12.3145 C   0  0  0  0  0  0  0  0  0  0  0  0
   30.8228  -10.3792   12.3131 C   0  0  0  0  0  0  0  0  0  0  0  0
   30.0828  -10.5788   13.4791 C   0  0  0  0  0  0  0  0  0  0  0  0
   28.9990   -9.1068   16.5889 C   0  0  0  0  0  0  0  0  0  0  0  0
   32.4384  -10.0925    9.7757 C   0  0  2  0  0  0  0  0  0  0  0  0
   32.9176  -11.4349    9.3411 C   0  0  0  0  0  0  0  0  0  0  0  0
   34.6194  -13.0520    9.1884 C   0  0  0  0  0  0  0  0  0  0  0  0
   33.7371  -13.9136    8.5686 C   0  0  0  0  0  0  0  0  0  0  0  0
   32.4405  -13.5207    8.3401 C   0  0  0  0  0  0  0  0  0  0  0  0
   31.9875  -12.2752    8.7158 C   0  0  0  0  0  0  0  0  0  0  0  0
   32.7964   -9.0381    8.8067 C   0  0  0  0  0  0  0  0  0  0  0  0
   31.7991   -8.4138    8.0652 C   0  0  0  0  0  0  0  0  0  0  0  0
   32.0959   -7.4208    7.1468 C   0  0  0  0  0  0  0  0  0  0  0  0
   33.3951   -7.0116    6.9314 C   0  0  0  0  0  0  0  0  0  0  0  0
   34.3784   -7.6355    7.6706 C   0  0  0  0  0  0  0  0  0  0  0  0
   34.0945   -8.6329    8.5951 C   0  0  0  0  0  0  0  0  0  0  0  0
   34.7395   -8.7708   14.7283 C   0  0  0  0  0  0  0  0  0  0  0  0
   36.7409   -7.7999   15.5228 C   0  0  0  0  0  0  0  0  0  0  0  0
   36.1795   -7.5840   16.7609 C   0  0  0  0  0  0  0  0  0  0  0  0
   30.6790  -10.3990   14.6871 C   0  0  0  0  0  0  0  0  0  0  0  0
   31.9966  -10.0242   14.7155 C   0  0  0  0  0  0  0  0  0  0  0  0
   32.7437   -9.8218   13.5675 C   0  0  0  0  0  0  0  0  0  0  0  0
   32.8960   -9.8692   11.1193 N   0  0  0  0  0  0  0  0  0  0  0  0
   29.7603  -10.6481   16.1806 S   0  0  1  0  0  6  0  0  0  0  0  0
   30.6407  -11.1668   17.2570 O   0  0  0  0  0  0  0  0  0  0  0  0
   28.6898  -11.6574   15.8921 O   0  0  0  0  0  0  0  0  0  0  0  0
   34.1756  -11.8411    9.5527 N   0  0  0  0  0  0  0  0  0  0  0  0
   36.0494   -7.1511    7.4345 Cl  0  0  0  0  0  0  0  0  0  0  0  0
   34.0956   -9.3780   13.6469 N   0  0  0  0  0  0  0  0  0  0  0  0
   36.0317   -8.3749   14.5503 N   0  0  0  0  0  0  0  0  0  0  0  0
   34.8700   -7.9898   16.9281 C   0  0  0  0  0  0  0  0  0  0  0  0
   34.1965   -8.5649   15.9174 N   0  0  0  0  0  0  0  0  0  0  0  0
  1  2  2  0
 22  1  1  0
  1 23  1  0
  2  3  1  0
 20  3  2  0
 24  4  1  1
  5  6  1  0
  5 11  1  0
  5 23  1  1
  6 10  1  0
  6 27  2  0
  7  8  2  0
 27  7  1  0
  9  8  1  0
 10  9  2  0
 11 12  2  0
 11 16  1  0
 12 13  1  0
 13 14  2  0
 15 14  1  0
 16 15  2  0
 15 28  1  0
 29 17  1  0
 17 30  2  0
 17 32  1  0
 18 19  2  0
 30 18  1  0
 19 31  1  0
 21 20  1  0
 20 24  1  0
 22 21  2  0
 22 29  1  0
 24 25  2  0
 24 26  2  0
 31 32  2  0
M  END
$$$$
