
     RDKit          3D

 32 35  0  0  0  0  0  0  0  0999 V2000
   32.2234   -9.5660    9.9144 C   0  0  0  0  0  0  0  0  0  0  0  0
   31.2954   -9.7999    8.9196 C   0  0  0  0  0  0  0  0  0  0  0  0
   31.4673   -9.3825    7.5992 C   0  0  0  0  0  0  0  0  0  0  0  0
   32.8432   -6.4025    5.6035 C   0  0  0  0  0  0  0  0  0  0  0  0
   30.9134  -10.7368   11.7717 C   0  0  2  0  0  0  0  0  0  0  0  0
   30.8925  -10.5876   13.2542 C   0  0  0  0  0  0  0  0  0  0  0  0
   32.0197  -10.3377   15.3040 C   0  0  0  0  0  0  0  0  0  0  0  0
   30.8054  -10.2721   15.9570 C   0  0  0  0  0  0  0  0  0  0  0  0
   29.6359  -10.3662   15.2422 C   0  0  0  0  0  0  0  0  0  0  0  0
   29.6378  -10.5263   13.8740 C   0  0  0  0  0  0  0  0  0  0  0  0
   30.9237  -12.1541   11.3595 C   0  0  0  0  0  0  0  0  0  0  0  0
   29.7311  -12.7835   11.0194 C   0  0  0  0  0  0  0  0  0  0  0  0
   29.7007  -14.1115   10.6281 C   0  0  0  0  0  0  0  0  0  0  0  0
   30.8549  -14.8632   10.5604 C   0  0  0  0  0  0  0  0  0  0  0  0
   32.0336  -14.2319   10.8992 C   0  0  0  0  0  0  0  0  0  0  0  0
   32.0781  -12.9005   11.2933 C   0  0  0  0  0  0  0  0  0  0  0  0
   35.1209   -7.4679   10.7279 C   0  0  0  0  0  0  0  0  0  0  0  0
   35.5340   -5.2550   10.0125 C   0  0  0  0  0  0  0  0  0  0  0  0
   36.4647   -5.0746   11.0105 C   0  0  0  0  0  0  0  0  0  0  0  0
   32.5968   -8.7104    7.2533 C   0  0  0  0  0  0  0  0  0  0  0  0
   33.5337   -8.4660    8.2227 C   0  0  0  0  0  0  0  0  0  0  0  0
   33.3777   -8.8742    9.5365 C   0  0  0  0  0  0  0  0  0  0  0  0
   31.9956   -9.9429   11.2589 N   0  0  0  0  0  0  0  0  0  0  0  0
   32.8364   -8.1693    5.5841 S   0  0  1  0  0  6  0  0  0  0  0  0
   31.7942   -8.7387    4.6940 O   0  0  0  0  0  0  0  0  0  0  0  0
   34.1828   -8.6554    5.1381 O   0  0  0  0  0  0  0  0  0  0  0  0
   32.0181  -10.4935   13.9730 N   0  0  0  0  0  0  0  0  0  0  0  0
   33.5319  -15.1445   10.8293 Cl  0  0  0  0  0  0  0  0  0  0  0  0
   34.4053   -8.6459   10.4972 N   0  0  0  0  0  0  0  0  0  0  0  0
   34.8926   -6.4180    9.8889 N   0  0  0  0  0  0  0  0  0  0  0  0
   36.6865   -6.1459   11.8535 C   0  0  0  0  0  0  0  0  0  0  0  0
   36.0150   -7.2981   11.6886 N   0  0  0  0  0  0  0  0  0  0  0  0
  1  2  2  0
 22  1  1  0
  1 23  1  0
  2  3  1  0
 20  3  2  0
 24  4  1  1
  5  6  1  0
  5 11  1  0
  5 23  1  1
  6 10  1  0
  6 27  2  0
  7  8  2  0
 27  7  1  0
  9  8  1  0
 10  9  2  0
 11 12  2  0
 11 16  1  0
 12 13  1  0
 13 14  2  0
 15 14  1  0
 16 15  2  0
 15 28  1  0
 29 17  1  0
 17 30  2  0
 17 32  1  0
 18 19  2  0
 30 18  1  0
 19 31  1  0
 21 20  1  0
 20 24  1  0
 22 21  2  0
 22 29  1  0
 24 25  2  0
 24 26  2  0
 31 32  2  0
M  END
$$$$
