
     RDKit          3D

 32 35  0  0  0  0  0  0  0  0999 V2000
   31.8999  -10.7682   10.5539 C   0  0  0  0  0  0  0  0  0  0  0  0
   31.1554  -10.9294    9.4028 C   0  0  0  0  0  0  0  0  0  0  0  0
   29.8667  -11.4644    9.3936 C   0  0  0  0  0  0  0  0  0  0  0  0
   26.6372  -11.4202   11.4852 C   0  0  0  0  0  0  0  0  0  0  0  0
   34.0218   -9.9706    9.3716 C   0  0  2  0  0  0  0  0  0  0  0  0
   35.4576  -10.0267    9.7665 C   0  0  0  0  0  0  0  0  0  0  0  0
   37.1686   -9.6317   11.3320 C   0  0  0  0  0  0  0  0  0  0  0  0
   38.0844  -10.1898   10.4632 C   0  0  0  0  0  0  0  0  0  0  0  0
   37.6707  -10.6651    9.2423 C   0  0  0  0  0  0  0  0  0  0  0  0
   36.3509  -10.6009    8.8530 C   0  0  0  0  0  0  0  0  0  0  0  0
   33.6826   -8.6995    8.7023 C   0  0  0  0  0  0  0  0  0  0  0  0
   33.5742   -7.5321    9.4504 C   0  0  0  0  0  0  0  0  0  0  0  0
   33.2576   -6.3210    8.8583 C   0  0  0  0  0  0  0  0  0  0  0  0
   33.0371   -6.2254    7.5004 C   0  0  0  0  0  0  0  0  0  0  0  0
   33.1465   -7.3875    6.7652 C   0  0  0  0  0  0  0  0  0  0  0  0
   33.4633   -8.6087    7.3466 C   0  0  0  0  0  0  0  0  0  0  0  0
   31.5666  -10.2443   14.0916 C   0  0  0  0  0  0  0  0  0  0  0  0
   29.7868   -9.0735   15.1120 C   0  0  0  0  0  0  0  0  0  0  0  0
   30.5819   -8.7403   16.1850 C   0  0  0  0  0  0  0  0  0  0  0  0
   29.2969  -11.8531   10.5647 C   0  0  0  0  0  0  0  0  0  0  0  0
   30.0154  -11.7031   11.7216 C   0  0  0  0  0  0  0  0  0  0  0  0
   31.2945  -11.1735   11.7469 C   0  0  0  0  0  0  0  0  0  0  0  0
   33.2288  -10.2833   10.5283 N   0  0  0  0  0  0  0  0  0  0  0  0
   27.6631  -12.5364   10.5777 S   0  0  1  0  0  6  0  0  0  0  0  0
   27.6736  -13.9089   11.1424 O   0  0  0  0  0  0  0  0  0  0  0  0
   27.1832  -12.5926    9.1583 O   0  0  0  0  0  0  0  0  0  0  0  0
   35.8854   -9.5707   10.9503 N   0  0  0  0  0  0  0  0  0  0  0  0
   32.8756   -7.3201    5.0318 Cl  0  0  0  0  0  0  0  0  0  0  0  0
   31.9808  -10.9852   12.9816 N   0  0  0  0  0  0  0  0  0  0  0  0
   30.2775   -9.8013   14.1076 N   0  0  0  0  0  0  0  0  0  0  0  0
   31.8857   -9.1953   16.1565 C   0  0  0  0  0  0  0  0  0  0  0  0
   32.3340   -9.9258   15.1216 N   0  0  0  0  0  0  0  0  0  0  0  0
  1  2  2  0
 22  1  1  0
  1 23  1  0
  2  3  1  0
 20  3  2  0
 24  4  1  1
  5  6  1  0
  5 11  1  0
  5 23  1  1
  6 10  1  0
  6 27  2  0
  7  8  2  0
 27  7  1  0
  9  8  1  0
 10  9  2  0
 11 12  2  0
 11 16  1  0
 12 13  1  0
 13 14  2  0
 15 14  1  0
 16 15  2  0
 15 28  1  0
 29 17  1  0
 17 30  2  0
 17 32  1  0
 18 19  2  0
 30 18  1  0
 19 31  1  0
 21 20  1  0
 20 24  1  0
 22 21  2  0
 22 29  1  0
 24 25  2  0
 24 26  2  0
 31 32  2  0
M  END
$$$$
