
     RDKit          3D

 32 35  0  0  0  0  0  0  0  0999 V2000
   31.0525  -10.6237   12.1839 C   0  0  0  0  0  0  0  0  0  0  0  0
   29.8523  -11.0130   11.5899 C   0  0  0  0  0  0  0  0  0  0  0  0
   28.8011  -11.3841   12.3940 C   0  0  0  0  0  0  0  0  0  0  0  0
   27.4900  -13.6266   14.8268 C   0  0  0  0  0  0  0  0  0  0  0  0
   32.1374  -10.3608    9.8996 C   0  0  2  0  0  0  0  0  0  0  0  0
   32.6843  -11.6497    9.4011 C   0  0  0  0  0  0  0  0  0  0  0  0
   34.2722  -13.4043    9.7369 C   0  0  0  0  0  0  0  0  0  0  0  0
   33.8818  -14.0818    8.6039 C   0  0  0  0  0  0  0  0  0  0  0  0
   32.8743  -13.5217    7.8675 C   0  0  0  0  0  0  0  0  0  0  0  0
   32.2917  -12.3181    8.2752 C   0  0  0  0  0  0  0  0  0  0  0  0
   32.8931   -9.2118    9.2823 C   0  0  0  0  0  0  0  0  0  0  0  0
   34.2070   -8.9849    9.6193 C   0  0  0  0  0  0  0  0  0  0  0  0
   34.9144   -7.9147    9.0546 C   0  0  0  0  0  0  0  0  0  0  0  0
   34.3131   -7.0662    8.1506 C   0  0  0  0  0  0  0  0  0  0  0  0
   32.9963   -7.2996    7.8172 C   0  0  0  0  0  0  0  0  0  0  0  0
   32.2982   -8.3501    8.3701 C   0  0  0  0  0  0  0  0  0  0  0  0
   32.4383   -9.6004   15.4718 C   0  0  0  0  0  0  0  0  0  0  0  0
   33.6343   -8.5800   17.2127 C   0  0  0  0  0  0  0  0  0  0  0  0
   32.4910   -8.4017   17.9540 C   0  0  0  0  0  0  0  0  0  0  0  0
   28.9298  -11.3722   13.7655 C   0  0  0  0  0  0  0  0  0  0  0  0
   30.1218  -10.9851   14.3265 C   0  0  0  0  0  0  0  0  0  0  0  0
   31.2246  -10.5972   13.5411 C   0  0  0  0  0  0  0  0  0  0  0  0
   32.1021  -10.2034   11.3152 N   0  0  0  0  0  0  0  0  0  0  0  0
   27.5541  -11.8558   14.7296 S   0  0  1  0  0  6  0  0  0  0  0  0
   26.2636  -11.3791   14.1259 O   0  0  0  0  0  0  0  0  0  0  0  0
   27.6657  -11.2859   16.1168 O   0  0  0  0  0  0  0  0  0  0  0  0
   33.6997  -12.2618   10.0989 N   0  0  0  0  0  0  0  0  0  0  0  0
   32.2040   -6.2405    6.6722 Cl  0  0  0  0  0  0  0  0  0  0  0  0
   32.4268  -10.2127   14.1987 N   0  0  0  0  0  0  0  0  0  0  0  0
   33.6132   -9.1623   16.0057 N   0  0  0  0  0  0  0  0  0  0  0  0
   31.2975   -8.8506   17.4037 C   0  0  0  0  0  0  0  0  0  0  0  0
   31.3237   -9.4234   16.2010 N   0  0  0  0  0  0  0  0  0  0  0  0
  1  2  2  0
 22  1  1  0
  1 23  1  0
  2  3  1  0
 20  3  2  0
  4 24  1  6
  5  6  1  0
  5 11  1  0
  5 23  1  1
  6 10  1  0
  6 27  2  0
  7  8  2  0
 27  7  1  0
  9  8  1  0
 10  9  2  0
 11 12  2  0
 11 16  1  0
 12 13  1  0
 13 14  2  0
 15 14  1  0
 16 15  2  0
 15 28  1  0
 29 17  1  0
 17 30  2  0
 17 32  1  0
 18 19  2  0
 30 18  1  0
 19 31  1  0
 21 20  1  0
 24 20  1  6
 22 21  2  0
 22 29  1  0
 24 25  2  0
 24 26  2  0
 31 32  2  0
M  END
$$$$
