
     RDKit          3D

 32 35  0  0  0  0  0  0  0  0999 V2000
   28.3876  -13.4064   12.9248 C   0  0  0  0  0  0  0  0  0  0  0  0
   27.6704  -13.0185   11.7935 C   0  0  0  0  0  0  0  0  0  0  0  0
   26.3256  -12.7606   11.9138 C   0  0  0  0  0  0  0  0  0  0  0  0
   23.1201  -13.5292   12.0214 C   0  0  0  0  0  0  0  0  0  0  0  0
   30.5107  -13.5882   11.5378 C   0  0  2  0  0  0  0  0  0  0  0  0
   31.7867  -14.3498   11.5129 C   0  0  0  0  0  0  0  0  0  0  0  0
   33.5844  -15.2695   12.7919 C   0  0  0  0  0  0  0  0  0  0  0  0
   34.2353  -15.7503   11.6782 C   0  0  0  0  0  0  0  0  0  0  0  0
   33.6396  -15.5197   10.4687 C   0  0  0  0  0  0  0  0  0  0  0  0
   32.4280  -14.8255   10.4034 C   0  0  0  0  0  0  0  0  0  0  0  0
   30.7615  -12.1570   11.1364 C   0  0  0  0  0  0  0  0  0  0  0  0
   31.2894  -11.2654   12.0408 C   0  0  0  0  0  0  0  0  0  0  0  0
   31.5192   -9.9314   11.6770 C   0  0  0  0  0  0  0  0  0  0  0  0
   31.2234   -9.4816   10.4086 C   0  0  0  0  0  0  0  0  0  0  0  0
   30.6950  -10.3806    9.5075 C   0  0  0  0  0  0  0  0  0  0  0  0
   30.4676  -11.6920    9.8613 C   0  0  0  0  0  0  0  0  0  0  0  0
   27.8558  -13.9841   16.6027 C   0  0  0  0  0  0  0  0  0  0  0  0
   25.9161  -13.7683   17.9039 C   0  0  0  0  0  0  0  0  0  0  0  0
   26.6016  -14.0694   19.0564 C   0  0  0  0  0  0  0  0  0  0  0  0
   25.6949  -12.8831   13.1324 C   0  0  0  0  0  0  0  0  0  0  0  0
   26.4229  -13.2667   14.2316 C   0  0  0  0  0  0  0  0  0  0  0  0
   27.8021  -13.5409   14.1542 C   0  0  0  0  0  0  0  0  0  0  0  0
   29.7884  -13.6201   12.7655 N   0  0  0  0  0  0  0  0  0  0  0  0
   23.9829  -12.5402   13.2159 S   0  0  1  0  0  6  0  0  0  0  0  0
   23.6950  -11.0966   12.9151 O   0  0  0  0  0  0  0  0  0  0  0  0
   23.4571  -12.8503   14.5903 O   0  0  0  0  0  0  0  0  0  0  0  0
   32.4337  -14.6127   12.6983 N   0  0  0  0  0  0  0  0  0  0  0  0
   30.3086   -9.8410    7.8888 Cl  0  0  0  0  0  0  0  0  0  0  0  0
   28.4849  -13.9367   15.3386 N   0  0  0  0  0  0  0  0  0  0  0  0
   26.5219  -13.7258   16.7091 N   0  0  0  0  0  0  0  0  0  0  0  0
   27.9605  -14.3314   18.9402 C   0  0  0  0  0  0  0  0  0  0  0  0
   28.5208  -14.2778   17.7326 N   0  0  0  0  0  0  0  0  0  0  0  0
  1  2  2  0
 22  1  1  0
  1 23  1  0
  2  3  1  0
 20  3  2  0
  4 24  1  6
  5  6  1  0
  5 11  1  0
  5 23  1  1
  6 10  1  0
  6 27  2  0
  7  8  2  0
 27  7  1  0
  9  8  1  0
 10  9  2  0
 11 12  2  0
 11 16  1  0
 12 13  1  0
 13 14  2  0
 15 14  1  0
 16 15  2  0
 15 28  1  0
 29 17  1  0
 17 30  2  0
 17 32  1  0
 18 19  2  0
 30 18  1  0
 19 31  1  0
 21 20  1  0
 24 20  1  1
 22 21  2  0
 22 29  1  0
 24 25  2  0
 24 26  2  0
 31 32  2  0
M  END
$$$$
