
     RDKit          3D

 32 35  0  0  0  0  0  0  0  0999 V2000
   31.7177  -10.6912   10.8091 C   0  0  0  0  0  0  0  0  0  0  0  0
   31.1262  -10.6181    9.5640 C   0  0  0  0  0  0  0  0  0  0  0  0
   31.6231   -9.8290    8.5259 C   0  0  0  0  0  0  0  0  0  0  0  0
   34.1598   -6.6773    8.1845 C   0  0  0  0  0  0  0  0  0  0  0  0
   30.0485  -12.3596   11.7923 C   0  0  2  0  0  0  0  0  0  0  0  0
   29.3247  -12.3112   13.0939 C   0  0  0  0  0  0  0  0  0  0  0  0
   29.3401  -12.1805   15.4428 C   0  0  0  0  0  0  0  0  0  0  0  0
   27.9599  -12.1803   15.4461 C   0  0  0  0  0  0  0  0  0  0  0  0
   27.2709  -12.2463   14.2592 C   0  0  0  0  0  0  0  0  0  0  0  0
   27.9247  -12.3136   13.0486 C   0  0  0  0  0  0  0  0  0  0  0  0
   30.3946  -13.7410   11.4041 C   0  0  0  0  0  0  0  0  0  0  0  0
   31.2863  -14.4738   12.1800 C   0  0  0  0  0  0  0  0  0  0  0  0
   31.6355  -15.7721   11.8480 C   0  0  0  0  0  0  0  0  0  0  0  0
   31.1111  -16.3901   10.7322 C   0  0  0  0  0  0  0  0  0  0  0  0
   30.2275  -15.6568    9.9679 C   0  0  0  0  0  0  0  0  0  0  0  0
   29.8688  -14.3538   10.2897 C   0  0  0  0  0  0  0  0  0  0  0  0
   33.1767   -9.4641   13.4720 C   0  0  0  0  0  0  0  0  0  0  0  0
   31.4992   -8.3087   14.6682 C   0  0  0  0  0  0  0  0  0  0  0  0
   32.2554   -8.3408   15.8179 C   0  0  0  0  0  0  0  0  0  0  0  0
   32.7437   -9.0871    8.7289 C   0  0  0  0  0  0  0  0  0  0  0  0
   33.3498   -9.1427    9.9564 C   0  0  0  0  0  0  0  0  0  0  0  0
   32.8693   -9.9211   10.9957 C   0  0  0  0  0  0  0  0  0  0  0  0
   31.1572  -11.4486   11.8645 N   0  0  0  0  0  0  0  0  0  0  0  0
   33.3920   -8.0768    7.4269 S   0  0  1  0  0  6  0  0  0  0  0  0
   32.3212   -7.7065    6.4683 O   0  0  0  0  0  0  0  0  0  0  0  0
   34.4385   -8.8762    6.7101 O   0  0  0  0  0  0  0  0  0  0  0  0
   29.9731  -12.2461   14.2635 N   0  0  0  0  0  0  0  0  0  0  0  0
   29.5309  -16.3976    8.5366 Cl  0  0  0  0  0  0  0  0  0  0  0  0
   33.5659   -9.9897   12.2371 N   0  0  0  0  0  0  0  0  0  0  0  0
   31.9585   -8.8562   13.5419 N   0  0  0  0  0  0  0  0  0  0  0  0
   33.4874   -8.9595   15.7336 C   0  0  0  0  0  0  0  0  0  0  0  0
   33.9065   -9.4968   14.5754 N   0  0  0  0  0  0  0  0  0  0  0  0
  1  2  2  0
 22  1  1  0
  1 23  1  0
  2  3  1  0
 20  3  2  0
 24  4  1  1
  5  6  1  0
  5 11  1  0
  5 23  1  1
  6 10  1  0
  6 27  2  0
  7  8  2  0
 27  7  1  0
  9  8  1  0
 10  9  2  0
 11 12  2  0
 11 16  1  0
 12 13  1  0
 13 14  2  0
 15 14  1  0
 16 15  2  0
 15 28  1  0
 29 17  1  0
 17 30  2  0
 17 32  1  0
 18 19  2  0
 30 18  1  0
 19 31  1  0
 21 20  1  0
 20 24  1  0
 22 21  2  0
 22 29  1  0
 24 25  2  0
 24 26  2  0
 31 32  2  0
M  END
$$$$
