
     RDKit          3D

 32 35  0  0  0  0  0  0  0  0999 V2000
   30.4087  -10.7535   11.1729 C   0  0  0  0  0  0  0  0  0  0  0  0
   29.4941  -11.3422   10.3228 C   0  0  0  0  0  0  0  0  0  0  0  0
   28.1890  -11.6575   10.7027 C   0  0  0  0  0  0  0  0  0  0  0  0
   25.1126  -10.3805   12.0772 C   0  0  0  0  0  0  0  0  0  0  0  0
   32.3419  -10.7544    9.4998 C   0  0  2  0  0  0  0  0  0  0  0  0
   33.7613  -11.1511    9.7197 C   0  0  0  0  0  0  0  0  0  0  0  0
   35.8484  -10.8076   10.7496 C   0  0  0  0  0  0  0  0  0  0  0  0
   36.3358  -11.9384   10.1258 C   0  0  0  0  0  0  0  0  0  0  0  0
   35.5202  -12.6702    9.2969 C   0  0  0  0  0  0  0  0  0  0  0  0
   34.2123  -12.3049    9.0658 C   0  0  0  0  0  0  0  0  0  0  0  0
   32.2211   -9.6531    8.5244 C   0  0  0  0  0  0  0  0  0  0  0  0
   31.6214   -9.8851    7.2912 C   0  0  0  0  0  0  0  0  0  0  0  0
   31.4902   -8.8774    6.3505 C   0  0  0  0  0  0  0  0  0  0  0  0
   31.9502   -7.6017    6.6008 C   0  0  0  0  0  0  0  0  0  0  0  0
   32.5437   -7.3795    7.8260 C   0  0  0  0  0  0  0  0  0  0  0  0
   32.6817   -8.3813    8.7785 C   0  0  0  0  0  0  0  0  0  0  0  0
   30.8349   -9.8975   14.7796 C   0  0  0  0  0  0  0  0  0  0  0  0
   31.8926   -9.2196   16.7798 C   0  0  0  0  0  0  0  0  0  0  0  0
   31.0104   -9.9612   17.5325 C   0  0  0  0  0  0  0  0  0  0  0  0
   27.7766  -11.3805   11.9678 C   0  0  0  0  0  0  0  0  0  0  0  0
   28.6656  -10.7958   12.8309 C   0  0  0  0  0  0  0  0  0  0  0  0
   29.9633  -10.4764   12.4686 C   0  0  0  0  0  0  0  0  0  0  0  0
   31.7453  -10.5033   10.7826 N   0  0  0  0  0  0  0  0  0  0  0  0
   26.1253  -11.7731   12.4732 S   0  0  1  0  0  6  0  0  0  0  0  0
   26.0889  -12.1298   13.9134 O   0  0  0  0  0  0  0  0  0  0  0  0
   25.6705  -12.9503   11.6637 O   0  0  0  0  0  0  0  0  0  0  0  0
   34.5756  -10.4550   10.5227 N   0  0  0  0  0  0  0  0  0  0  0  0
   33.1462   -5.7722    8.1947 Cl  0  0  0  0  0  0  0  0  0  0  0  0
   30.8343   -9.8179   13.3844 N   0  0  0  0  0  0  0  0  0  0  0  0
   31.7947   -9.1990   15.4497 N   0  0  0  0  0  0  0  0  0  0  0  0
   30.0430  -10.6641   16.8414 C   0  0  0  0  0  0  0  0  0  0  0  0
   29.9850  -10.6117   15.4999 N   0  0  0  0  0  0  0  0  0  0  0  0
  1  2  2  0
 22  1  1  0
  1 23  1  0
  2  3  1  0
 20  3  2  0
 24  4  1  1
  5  6  1  0
  5 11  1  0
  5 23  1  1
  6 10  1  0
  6 27  2  0
  7  8  2  0
 27  7  1  0
  9  8  1  0
 10  9  2  0
 11 12  2  0
 11 16  1  0
 12 13  1  0
 13 14  2  0
 15 14  1  0
 16 15  2  0
 15 28  1  0
 29 17  1  0
 17 30  2  0
 17 32  1  0
 18 19  2  0
 30 18  1  0
 19 31  1  0
 21 20  1  0
 20 24  1  0
 22 21  2  0
 22 29  1  0
 24 25  2  0
 24 26  2  0
 31 32  2  0
M  END
$$$$
