
     RDKit          3D

 32 35  0  0  0  0  0  0  0  0999 V2000
   34.6260   -8.7020   12.6437 C   0  0  0  0  0  0  0  0  0  0  0  0
   33.3955   -8.9098   13.2662 C   0  0  0  0  0  0  0  0  0  0  0  0
   33.2314   -8.5030   14.5689 C   0  0  0  0  0  0  0  0  0  0  0  0
   34.9311   -5.9426   17.2524 C   0  0  0  0  0  0  0  0  0  0  0  0
   33.7072   -9.6664   10.4780 C   0  0  2  0  0  0  0  0  0  0  0  0
   34.0881  -10.8561    9.6728 C   0  0  0  0  0  0  0  0  0  0  0  0
   35.8033  -11.9445    8.4132 C   0  0  0  0  0  0  0  0  0  0  0  0
   34.9981  -13.0138    8.0915 C   0  0  0  0  0  0  0  0  0  0  0  0
   33.7192  -12.9899    8.5760 C   0  0  0  0  0  0  0  0  0  0  0  0
   33.2839  -11.9155    9.3573 C   0  0  0  0  0  0  0  0  0  0  0  0
   33.1228   -8.6065    9.5794 C   0  0  0  0  0  0  0  0  0  0  0  0
   31.7616   -8.5196    9.4036 C   0  0  0  0  0  0  0  0  0  0  0  0
   31.2111   -7.5411    8.5645 C   0  0  0  0  0  0  0  0  0  0  0  0
   32.0173   -6.6446    7.8972 C   0  0  0  0  0  0  0  0  0  0  0  0
   33.3804   -6.7373    8.0783 C   0  0  0  0  0  0  0  0  0  0  0  0
   33.9248   -7.6975    8.9019 C   0  0  0  0  0  0  0  0  0  0  0  0
   38.1515   -7.8659   13.4496 C   0  0  0  0  0  0  0  0  0  0  0  0
   39.2785   -8.3163   15.4569 C   0  0  0  0  0  0  0  0  0  0  0  0
   40.4689   -7.8609   14.9431 C   0  0  0  0  0  0  0  0  0  0  0  0
   34.2655   -7.8995   15.2501 C   0  0  0  0  0  0  0  0  0  0  0  0
   35.4676   -7.7062   14.6153 C   0  0  0  0  0  0  0  0  0  0  0  0
   35.6800   -8.1071   13.2821 C   0  0  0  0  0  0  0  0  0  0  0  0
   34.7395   -9.0976   11.2785 N   0  0  0  0  0  0  0  0  0  0  0  0
   33.9898   -7.4063   16.9043 S   0  0  1  0  0  6  0  0  0  0  0  0
   34.4156   -8.4712   17.8748 O   0  0  0  0  0  0  0  0  0  0  0  0
   32.5297   -7.1221   17.1255 O   0  0  0  0  0  0  0  0  0  0  0  0
   35.3612  -10.9373    9.1578 N   0  0  0  0  0  0  0  0  0  0  0  0
   34.4314   -5.6138    7.2455 Cl  0  0  0  0  0  0  0  0  0  0  0  0
   36.9561   -7.8746   12.6965 N   0  0  0  0  0  0  0  0  0  0  0  0
   38.1496   -8.3206   14.7344 N   0  0  0  0  0  0  0  0  0  0  0  0
   40.4632   -7.3992   13.6333 C   0  0  0  0  0  0  0  0  0  0  0  0
   39.3180   -7.4219   12.9525 N   0  0  0  0  0  0  0  0  0  0  0  0
  1  2  2  0
 22  1  1  0
  1 23  1  0
  2  3  1  0
 20  3  2  0
  4 24  1  6
  5  6  1  0
  5 11  1  0
  5 23  1  6
  6 10  1  0
  6 27  2  0
  7  8  2  0
 27  7  1  0
  9  8  1  0
 10  9  2  0
 11 12  2  0
 11 16  1  0
 12 13  1  0
 13 14  2  0
 15 14  1  0
 16 15  2  0
 15 28  1  0
 29 17  1  0
 17 30  2  0
 17 32  1  0
 18 19  2  0
 30 18  1  0
 19 31  1  0
 21 20  1  0
 24 20  1  6
 22 21  2  0
 22 29  1  0
 24 25  2  0
 24 26  2  0
 31 32  2  0
M  END
$$$$
