
     RDKit          3D

 32 35  0  0  0  0  0  0  0  0999 V2000
   29.5612  -12.0694   13.6746 C   0  0  0  0  0  0  0  0  0  0  0  0
   30.1077  -10.8018   13.6695 C   0  0  0  0  0  0  0  0  0  0  0  0
   30.4511  -10.1118   14.8327 C   0  0  0  0  0  0  0  0  0  0  0  0
   29.1598   -9.4003   18.3323 C   0  0  0  0  0  0  0  0  0  0  0  0
   28.8991  -12.1197   11.2057 C   0  0  2  0  0  0  0  0  0  0  0  0
   27.7639  -12.8508   10.5755 C   0  0  0  0  0  0  0  0  0  0  0  0
   26.6248  -14.8558   10.1095 C   0  0  0  0  0  0  0  0  0  0  0  0
   25.6489  -14.1403    9.4457 C   0  0  0  0  0  0  0  0  0  0  0  0
   25.7436  -12.7727    9.3539 C   0  0  0  0  0  0  0  0  0  0  0  0
   26.7978  -12.0837    9.9119 C   0  0  0  0  0  0  0  0  0  0  0  0
   30.0641  -12.0261   10.3041 C   0  0  0  0  0  0  0  0  0  0  0  0
   30.1679  -10.9593    9.4179 C   0  0  0  0  0  0  0  0  0  0  0  0
   31.2455  -10.8375    8.5567 C   0  0  0  0  0  0  0  0  0  0  0  0
   32.2599  -11.7715    8.5446 C   0  0  0  0  0  0  0  0  0  0  0  0
   32.1498  -12.8265    9.4264 C   0  0  0  0  0  0  0  0  0  0  0  0
   31.0743  -12.9608   10.2955 C   0  0  0  0  0  0  0  0  0  0  0  0
   28.3254  -14.6351   16.1282 C   0  0  0  0  0  0  0  0  0  0  0  0
   27.5912  -16.6906   17.0312 C   0  0  0  0  0  0  0  0  0  0  0  0
   27.2627  -16.0840   18.2223 C   0  0  0  0  0  0  0  0  0  0  0  0
   30.2455  -10.6977   16.0417 C   0  0  0  0  0  0  0  0  0  0  0  0
   29.7044  -11.9560   16.0737 C   0  0  0  0  0  0  0  0  0  0  0  0
   29.3592  -12.6534   14.9284 C   0  0  0  0  0  0  0  0  0  0  0  0
   29.1619  -12.7210   12.4840 N   0  0  0  0  0  0  0  0  0  0  0  0
   30.6721   -9.8408   17.5317 S   0  0  1  0  0  6  0  0  0  0  0  0
   31.5366   -8.6716   17.2347 O   0  0  0  0  0  0  0  0  0  0  0  0
   31.4240  -10.7983   18.4068 O   0  0  0  0  0  0  0  0  0  0  0  0
   27.6491  -14.1826   10.6513 N   0  0  0  0  0  0  0  0  0  0  0  0
   33.4151  -14.0434    9.4512 Cl  0  0  0  0  0  0  0  0  0  0  0  0
   28.8512  -13.9824   15.0100 N   0  0  0  0  0  0  0  0  0  0  0  0
   28.1041  -15.9765   16.0281 N   0  0  0  0  0  0  0  0  0  0  0  0
   27.4918  -14.7249   18.3107 C   0  0  0  0  0  0  0  0  0  0  0  0
   28.0108  -14.0485   17.2720 N   0  0  0  0  0  0  0  0  0  0  0  0
  1  2  2  0
 22  1  1  0
  1 23  1  0
  2  3  1  0
 20  3  2  0
 24  4  1  1
  5  6  1  0
  5 11  1  0
  5 23  1  1
  6 10  1  0
  6 27  2  0
  7  8  2  0
 27  7  1  0
  9  8  1  0
 10  9  2  0
 11 12  2  0
 11 16  1  0
 12 13  1  0
 13 14  2  0
 15 14  1  0
 16 15  2  0
 15 28  1  0
 29 17  1  0
 17 30  2  0
 17 32  1  0
 18 19  2  0
 30 18  1  0
 19 31  1  0
 21 20  1  0
 20 24  1  0
 22 21  2  0
 22 29  1  0
 24 25  2  0
 24 26  2  0
 31 32  2  0
M  END
$$$$
