
     RDKit          3D

 32 35  0  0  0  0  0  0  0  0999 V2000
   29.9574  -11.3035   13.3200 C   0  0  0  0  0  0  0  0  0  0  0  0
   30.4683  -10.0352   13.0459 C   0  0  0  0  0  0  0  0  0  0  0  0
   31.2078   -9.3927   14.0102 C   0  0  0  0  0  0  0  0  0  0  0  0
   31.3077   -8.3322   17.5765 C   0  0  0  0  0  0  0  0  0  0  0  0
   28.8004  -11.3590   11.0567 C   0  0  2  0  0  0  0  0  0  0  0  0
   27.4926  -11.8309   10.5317 C   0  0  0  0  0  0  0  0  0  0  0  0
   26.0382  -13.6966   10.1891 C   0  0  0  0  0  0  0  0  0  0  0  0
   25.0756  -12.9330    9.5683 C   0  0  0  0  0  0  0  0  0  0  0  0
   25.3399  -11.5976    9.4346 C   0  0  0  0  0  0  0  0  0  0  0  0
   26.5401  -11.0673    9.9167 C   0  0  0  0  0  0  0  0  0  0  0  0
   29.8658  -11.5301   10.0041 C   0  0  0  0  0  0  0  0  0  0  0  0
   29.5868  -11.2607    8.6846 C   0  0  0  0  0  0  0  0  0  0  0  0
   30.5702  -11.4238    7.6992 C   0  0  0  0  0  0  0  0  0  0  0  0
   31.8368  -11.8564    8.0268 C   0  0  0  0  0  0  0  0  0  0  0  0
   32.1095  -12.1242    9.3510 C   0  0  0  0  0  0  0  0  0  0  0  0
   31.1457  -11.9653   10.3218 C   0  0  0  0  0  0  0  0  0  0  0  0
   28.8948  -13.4694   16.0090 C   0  0  0  0  0  0  0  0  0  0  0  0
   27.7600  -14.9789   17.4003 C   0  0  0  0  0  0  0  0  0  0  0  0
   27.3937  -13.9758   18.2653 C   0  0  0  0  0  0  0  0  0  0  0  0
   31.4412   -9.9912   15.2288 C   0  0  0  0  0  0  0  0  0  0  0  0
   30.9273  -11.2405   15.4747 C   0  0  0  0  0  0  0  0  0  0  0  0
   30.1644  -11.9351   14.5161 C   0  0  0  0  0  0  0  0  0  0  0  0
   29.2347  -11.9533   12.2766 N   0  0  0  0  0  0  0  0  0  0  0  0
   32.3895   -9.1193   16.4104 S   0  0  1  0  0  6  0  0  0  0  0  0
   33.2281   -8.0527   15.7652 O   0  0  0  0  0  0  0  0  0  0  0  0
   33.3050  -10.0628   17.1407 O   0  0  0  0  0  0  0  0  0  0  0  0
   27.1697  -13.1642   10.6368 N   0  0  0  0  0  0  0  0  0  0  0  0
   33.7081  -12.6750    9.7998 Cl  0  0  0  0  0  0  0  0  0  0  0  0
   29.6638  -13.2251   14.8492 N   0  0  0  0  0  0  0  0  0  0  0  0
   28.4897  -14.7371   16.3023 N   0  0  0  0  0  0  0  0  0  0  0  0
   27.8101  -12.6866   17.9600 C   0  0  0  0  0  0  0  0  0  0  0  0
   28.5338  -12.4927   16.8582 N   0  0  0  0  0  0  0  0  0  0  0  0
  1  2  2  0
 22  1  1  0
  1 23  1  0
  2  3  1  0
 20  3  2  0
  4 24  1  6
  5  6  1  0
  5 11  1  0
  5 23  1  1
  6 10  1  0
  6 27  2  0
  7  8  2  0
 27  7  1  0
  9  8  1  0
 10  9  2  0
 11 12  2  0
 11 16  1  0
 12 13  1  0
 13 14  2  0
 15 14  1  0
 16 15  2  0
 15 28  1  0
 29 17  1  0
 17 30  2  0
 17 32  1  0
 18 19  2  0
 30 18  1  0
 19 31  1  0
 21 20  1  0
 24 20  1  6
 22 21  2  0
 22 29  1  0
 24 25  2  0
 24 26  2  0
 31 32  2  0
M  END
$$$$
