
     RDKit          3D

 32 35  0  0  0  0  0  0  0  0999 V2000
   30.9311  -10.7380   10.8654 C   0  0  0  0  0  0  0  0  0  0  0  0
   30.0687  -11.3451    9.9747 C   0  0  0  0  0  0  0  0  0  0  0  0
   28.7895  -11.7798   10.3237 C   0  0  0  0  0  0  0  0  0  0  0  0
   25.8068  -10.7166   12.5176 C   0  0  0  0  0  0  0  0  0  0  0  0
   32.8770  -10.5229    9.2211 C   0  0  2  0  0  0  0  0  0  0  0  0
   34.3272  -10.7800    9.4475 C   0  0  0  0  0  0  0  0  0  0  0  0
   36.3441  -10.2979   10.5585 C   0  0  0  0  0  0  0  0  0  0  0  0
   36.9648  -11.3140    9.8602 C   0  0  0  0  0  0  0  0  0  0  0  0
   36.2506  -12.0593    8.9535 C   0  0  0  0  0  0  0  0  0  0  0  0
   34.9148  -11.8203    8.7164 C   0  0  0  0  0  0  0  0  0  0  0  0
   32.6544   -9.4155    8.2708 C   0  0  0  0  0  0  0  0  0  0  0  0
   32.1759   -9.6868    6.9935 C   0  0  0  0  0  0  0  0  0  0  0  0
   31.9548   -8.6748    6.0745 C   0  0  0  0  0  0  0  0  0  0  0  0
   32.2010   -7.3555    6.3912 C   0  0  0  0  0  0  0  0  0  0  0  0
   32.6754   -7.0944    7.6599 C   0  0  0  0  0  0  0  0  0  0  0  0
   32.9015   -8.1001    8.5913 C   0  0  0  0  0  0  0  0  0  0  0  0
   31.1370   -9.8990   14.5210 C   0  0  0  0  0  0  0  0  0  0  0  0
   32.0120   -9.1234   16.5734 C   0  0  0  0  0  0  0  0  0  0  0  0
   31.0456   -9.8057   17.2771 C   0  0  0  0  0  0  0  0  0  0  0  0
   28.3505  -11.6075   11.5984 C   0  0  0  0  0  0  0  0  0  0  0  0
   29.1877  -11.0071   12.5016 C   0  0  0  0  0  0  0  0  0  0  0  0
   30.4591  -10.5699   12.1703 C   0  0  0  0  0  0  0  0  0  0  0  0
   32.2468  -10.3651   10.5026 N   0  0  0  0  0  0  0  0  0  0  0  0
   26.7314  -12.1527   12.0651 S   0  0  1  0  0  6  0  0  0  0  0  0
   26.8109  -13.1611   13.1511 O   0  0  0  0  0  0  0  0  0  0  0  0
   26.0978  -12.7783   10.8588 O   0  0  0  0  0  0  0  0  0  0  0  0
   35.0446  -10.0680   10.3255 N   0  0  0  0  0  0  0  0  0  0  0  0
   33.0049   -5.4307    8.1138 Cl  0  0  0  0  0  0  0  0  0  0  0  0
   31.2724   -9.9004   13.1301 N   0  0  0  0  0  0  0  0  0  0  0  0
   32.0429   -9.1784   15.2410 N   0  0  0  0  0  0  0  0  0  0  0  0
   30.1341  -10.5318   16.5358 C   0  0  0  0  0  0  0  0  0  0  0  0
   30.2065  -10.5563   15.1942 N   0  0  0  0  0  0  0  0  0  0  0  0
  1  2  2  0
 22  1  1  0
  1 23  1  0
  2  3  1  0
 20  3  2  0
 24  4  1  1
  5  6  1  0
  5 11  1  0
  5 23  1  1
  6 10  1  0
  6 27  2  0
  7  8  2  0
 27  7  1  0
  9  8  1  0
 10  9  2  0
 11 12  2  0
 11 16  1  0
 12 13  1  0
 13 14  2  0
 15 14  1  0
 16 15  2  0
 15 28  1  0
 29 17  1  0
 17 30  2  0
 17 32  1  0
 18 19  2  0
 30 18  1  0
 19 31  1  0
 21 20  1  0
 20 24  1  0
 22 21  2  0
 22 29  1  0
 24 25  2  0
 24 26  2  0
 31 32  2  0
M  END
$$$$
