
     RDKit          3D

 32 35  0  0  0  0  0  0  0  0999 V2000
   32.3321  -11.7435   10.5566 C   0  0  0  0  0  0  0  0  0  0  0  0
   32.6739  -10.3933   10.6264 C   0  0  0  0  0  0  0  0  0  0  0  0
   33.8745   -9.9824   10.0979 C   0  0  0  0  0  0  0  0  0  0  0  0
   37.5766  -10.8072    9.9058 C   0  0  0  0  0  0  0  0  0  0  0  0
   30.0603  -11.2369   11.5796 C   0  0  2  0  0  0  0  0  0  0  0  0
   29.2428  -11.7538   12.7080 C   0  0  0  0  0  0  0  0  0  0  0  0
   28.1975  -13.6591   13.7032 C   0  0  0  0  0  0  0  0  0  0  0  0
   27.6759  -12.9271   14.7459 C   0  0  0  0  0  0  0  0  0  0  0  0
   27.9511  -11.5873   14.7564 C   0  0  0  0  0  0  0  0  0  0  0  0
   28.7281  -11.0217   13.7412 C   0  0  0  0  0  0  0  0  0  0  0  0
   29.1587  -10.7990   10.4536 C   0  0  0  0  0  0  0  0  0  0  0  0
   28.2291  -11.6677    9.9315 C   0  0  0  0  0  0  0  0  0  0  0  0
   27.3918  -11.2701    8.8801 C   0  0  0  0  0  0  0  0  0  0  0  0
   27.4785  -10.0030    8.3454 C   0  0  0  0  0  0  0  0  0  0  0  0
   28.4121   -9.1376    8.8737 C   0  0  0  0  0  0  0  0  0  0  0  0
   29.2366   -9.5249    9.9066 C   0  0  0  0  0  0  0  0  0  0  0  0
   33.3674  -15.0214   10.7908 C   0  0  0  0  0  0  0  0  0  0  0  0
   34.8326  -15.5609   12.5413 C   0  0  0  0  0  0  0  0  0  0  0  0
   34.3932  -16.8627   12.5679 C   0  0  0  0  0  0  0  0  0  0  0  0
   34.7276  -10.8892    9.5084 C   0  0  0  0  0  0  0  0  0  0  0  0
   34.3684  -12.2133    9.4521 C   0  0  0  0  0  0  0  0  0  0  0  0
   33.1486  -12.6783    9.9806 C   0  0  0  0  0  0  0  0  0  0  0  0
   31.0586  -12.1199   11.0759 N   0  0  0  0  0  0  0  0  0  0  0  0
   36.2386  -10.3000    8.8560 S   0  0  1  0  0  6  0  0  0  0  0  0
   36.2566   -8.7999    8.7766 O   0  0  0  0  0  0  0  0  0  0  0  0
   36.4568  -10.8490    7.4731 O   0  0  0  0  0  0  0  0  0  0  0  0
   28.9325  -13.0935   12.7524 N   0  0  0  0  0  0  0  0  0  0  0  0
   28.5473   -7.5217    8.2172 Cl  0  0  0  0  0  0  0  0  0  0  0  0
   32.8512  -14.0668    9.8861 N   0  0  0  0  0  0  0  0  0  0  0  0
   34.3367  -14.6625   11.6791 N   0  0  0  0  0  0  0  0  0  0  0  0
   33.4053  -17.2211   11.6599 C   0  0  0  0  0  0  0  0  0  0  0  0
   32.9416  -16.2954   10.8213 N   0  0  0  0  0  0  0  0  0  0  0  0
  1  2  2  0
 22  1  1  0
  1 23  1  0
  2  3  1  0
 20  3  2  0
  4 24  1  6
  5  6  1  0
  5 11  1  0
  5 23  1  6
  6 10  1  0
  6 27  2  0
  7  8  2  0
 27  7  1  0
  9  8  1  0
 10  9  2  0
 11 12  2  0
 11 16  1  0
 12 13  1  0
 13 14  2  0
 15 14  1  0
 16 15  2  0
 15 28  1  0
 29 17  1  0
 17 30  2  0
 17 32  1  0
 18 19  2  0
 30 18  1  0
 19 31  1  0
 21 20  1  0
 24 20  1  1
 22 21  2  0
 22 29  1  0
 24 25  2  0
 24 26  2  0
 31 32  2  0
M  END
$$$$
