
     RDKit          3D

 32 35  0  0  0  0  0  0  0  0999 V2000
   31.8750  -10.6537   11.4180 C   0  0  0  0  0  0  0  0  0  0  0  0
   31.0593  -11.3499   10.5488 C   0  0  0  0  0  0  0  0  0  0  0  0
   29.8407  -11.9138   10.9287 C   0  0  0  0  0  0  0  0  0  0  0  0
   27.0921  -11.3282   13.7941 C   0  0  0  0  0  0  0  0  0  0  0  0
   33.7505  -10.2475    9.7288 C   0  0  2  0  0  0  0  0  0  0  0  0
   35.2139  -10.0187    9.8926 C   0  0  0  0  0  0  0  0  0  0  0  0
   37.0335   -9.2140   11.1480 C   0  0  0  0  0  0  0  0  0  0  0  0
   37.8986   -9.6611   10.1697 C   0  0  0  0  0  0  0  0  0  0  0  0
   37.4048  -10.2889    9.0518 C   0  0  0  0  0  0  0  0  0  0  0  0
   36.0534  -10.4888    8.8746 C   0  0  0  0  0  0  0  0  0  0  0  0
   33.1687   -9.3771    8.6883 C   0  0  0  0  0  0  0  0  0  0  0  0
   32.5175   -9.9440    7.5980 C   0  0  0  0  0  0  0  0  0  0  0  0
   31.9593   -9.1602    6.6021 C   0  0  0  0  0  0  0  0  0  0  0  0
   32.0278   -7.7839    6.6531 C   0  0  0  0  0  0  0  0  0  0  0  0
   32.6752   -7.2292    7.7375 C   0  0  0  0  0  0  0  0  0  0  0  0
   33.2394   -8.0037    8.7433 C   0  0  0  0  0  0  0  0  0  0  0  0
   31.9407   -9.6116   15.0398 C   0  0  0  0  0  0  0  0  0  0  0  0
   32.7601   -8.7551   17.0829 C   0  0  0  0  0  0  0  0  0  0  0  0
   31.6523   -9.2185   17.7556 C   0  0  0  0  0  0  0  0  0  0  0  0
   29.4165  -11.7836   12.2133 C   0  0  0  0  0  0  0  0  0  0  0  0
   30.2081  -11.0965   13.0957 C   0  0  0  0  0  0  0  0  0  0  0  0
   31.4190  -10.5310   12.7337 C   0  0  0  0  0  0  0  0  0  0  0  0
   33.1359  -10.1477   11.0237 N   0  0  0  0  0  0  0  0  0  0  0  0
   27.8742  -12.4921   12.7190 S   0  0  1  0  0  6  0  0  0  0  0  0
   28.0887  -13.8174   13.3516 O   0  0  0  0  0  0  0  0  0  0  0  0
   27.0296  -12.6639   11.4922 O   0  0  0  0  0  0  0  0  0  0  0  0
   35.7195   -9.4100   10.9726 N   0  0  0  0  0  0  0  0  0  0  0  0
   32.7899   -5.4809    7.8503 Cl  0  0  0  0  0  0  0  0  0  0  0  0
   32.1810   -9.7775   13.6732 N   0  0  0  0  0  0  0  0  0  0  0  0
   32.8850   -8.9530   15.7697 N   0  0  0  0  0  0  0  0  0  0  0  0
   30.7032   -9.8839   17.0045 C   0  0  0  0  0  0  0  0  0  0  0  0
   30.8742  -10.0586   15.6832 N   0  0  0  0  0  0  0  0  0  0  0  0
  1  2  2  0
 22  1  1  0
  1 23  1  0
  2  3  1  0
 20  3  2  0
 24  4  1  1
  5  6  1  0
  5 11  1  0
  5 23  1  1
  6 10  1  0
  6 27  2  0
  7  8  2  0
 27  7  1  0
  9  8  1  0
 10  9  2  0
 11 12  2  0
 11 16  1  0
 12 13  1  0
 13 14  2  0
 15 14  1  0
 16 15  2  0
 15 28  1  0
 29 17  1  0
 17 30  2  0
 17 32  1  0
 18 19  2  0
 30 18  1  0
 19 31  1  0
 21 20  1  0
 20 24  1  0
 22 21  2  0
 22 29  1  0
 24 25  2  0
 24 26  2  0
 31 32  2  0
M  END
$$$$
