
     RDKit          3D

 32 35  0  0  0  0  0  0  0  0999 V2000
   30.6483  -10.5275   10.0649 C   0  0  0  0  0  0  0  0  0  0  0  0
   30.1594  -10.8618    8.8180 C   0  0  0  0  0  0  0  0  0  0  0  0
   28.8439  -11.2707    8.5962 C   0  0  0  0  0  0  0  0  0  0  0  0
   26.2401  -13.6009    9.7356 C   0  0  0  0  0  0  0  0  0  0  0  0
   33.0558  -10.1439    9.2946 C   0  0  2  0  0  0  0  0  0  0  0  0
   34.3350  -10.4823    9.9800 C   0  0  0  0  0  0  0  0  0  0  0  0
   36.3017  -11.7646   10.1301 C   0  0  0  0  0  0  0  0  0  0  0  0
   36.6846  -11.0368   11.2386 C   0  0  0  0  0  0  0  0  0  0  0  0
   35.8785  -10.0288   11.7097 C   0  0  0  0  0  0  0  0  0  0  0  0
   34.6826   -9.7177   11.1009 C   0  0  0  0  0  0  0  0  0  0  0  0
   33.1572   -8.8887    8.5247 C   0  0  0  0  0  0  0  0  0  0  0  0
   32.8198   -7.6805    9.1253 C   0  0  0  0  0  0  0  0  0  0  0  0
   32.9020   -6.4827    8.4353 C   0  0  0  0  0  0  0  0  0  0  0  0
   33.3225   -6.4413    7.1227 C   0  0  0  0  0  0  0  0  0  0  0  0
   33.6553   -7.6436    6.5340 C   0  0  0  0  0  0  0  0  0  0  0  0
   33.5775   -8.8522    7.2147 C   0  0  0  0  0  0  0  0  0  0  0  0
   30.0247  -10.9487   13.6292 C   0  0  0  0  0  0  0  0  0  0  0  0
   30.5091  -11.0191   15.9400 C   0  0  0  0  0  0  0  0  0  0  0  0
   29.8747  -12.2341   16.0662 C   0  0  0  0  0  0  0  0  0  0  0  0
   27.9841  -11.3516    9.6457 C   0  0  0  0  0  0  0  0  0  0  0  0
   28.4450  -11.0247   10.8939 C   0  0  0  0  0  0  0  0  0  0  0  0
   29.7470  -10.6167   11.1296 C   0  0  0  0  0  0  0  0  0  0  0  0
   32.0035  -10.1782   10.2724 N   0  0  0  0  0  0  0  0  0  0  0  0
   26.3101  -11.8697    9.3890 S   0  0  1  0  0  6  0  0  0  0  0  0
   25.8618  -11.5315    8.0152 O   0  0  0  0  0  0  0  0  0  0  0  0
   25.4523  -11.1409   10.3794 O   0  0  0  0  0  0  0  0  0  0  0  0
   35.1377  -11.4595    9.5402 N   0  0  0  0  0  0  0  0  0  0  0  0
   34.1971   -7.6460    4.8640 Cl  0  0  0  0  0  0  0  0  0  0  0  0
   30.1649  -10.2333   12.4370 N   0  0  0  0  0  0  0  0  0  0  0  0
   30.5732  -10.4102   14.7550 N   0  0  0  0  0  0  0  0  0  0  0  0
   29.3233  -12.7687   14.9182 C   0  0  0  0  0  0  0  0  0  0  0  0
   29.4139  -12.1168   13.7467 N   0  0  0  0  0  0  0  0  0  0  0  0
  1  2  2  0
 22  1  1  0
  1 23  1  0
  2  3  1  0
 20  3  2  0
 24  4  1  1
  5  6  1  0
  5 11  1  0
  5 23  1  1
  6 10  1  0
  6 27  2  0
  7  8  2  0
 27  7  1  0
  9  8  1  0
 10  9  2  0
 11 12  2  0
 11 16  1  0
 12 13  1  0
 13 14  2  0
 15 14  1  0
 16 15  2  0
 15 28  1  0
 29 17  1  0
 17 30  2  0
 17 32  1  0
 18 19  2  0
 30 18  1  0
 19 31  1  0
 21 20  1  0
 20 24  1  0
 22 21  2  0
 22 29  1  0
 24 25  2  0
 24 26  2  0
 31 32  2  0
M  END
$$$$
