
     RDKit          3D

 32 35  0  0  0  0  0  0  0  0999 V2000
   30.8530  -11.5719   12.8922 C   0  0  0  0  0  0  0  0  0  0  0  0
   30.0493  -12.6539   12.5938 C   0  0  0  0  0  0  0  0  0  0  0  0
   29.1996  -13.2553   13.5230 C   0  0  0  0  0  0  0  0  0  0  0  0
   26.6953  -12.4340   16.2036 C   0  0  0  0  0  0  0  0  0  0  0  0
   31.8960  -11.3801   10.5659 C   0  0  2  0  0  0  0  0  0  0  0  0
   33.2855  -11.0473   10.1427 C   0  0  0  0  0  0  0  0  0  0  0  0
   35.2689  -11.6018    9.0055 C   0  0  0  0  0  0  0  0  0  0  0  0
   35.8044  -10.3785    9.3550 C   0  0  0  0  0  0  0  0  0  0  0  0
   35.0650   -9.4943   10.1028 C   0  0  0  0  0  0  0  0  0  0  0  0
   33.7874   -9.7954   10.5206 C   0  0  0  0  0  0  0  0  0  0  0  0
   30.8879  -10.7971    9.6588 C   0  0  0  0  0  0  0  0  0  0  0  0
   29.5740  -11.2508    9.7031 C   0  0  0  0  0  0  0  0  0  0  0  0
   28.6006  -10.7285    8.8680 C   0  0  0  0  0  0  0  0  0  0  0  0
   28.8972   -9.7357    7.9580 C   0  0  0  0  0  0  0  0  0  0  0  0
   30.2024   -9.2911    7.9201 C   0  0  0  0  0  0  0  0  0  0  0  0
   31.1885   -9.8064    8.7521 C   0  0  0  0  0  0  0  0  0  0  0  0
   31.8617   -9.4922   15.8514 C   0  0  0  0  0  0  0  0  0  0  0  0
   31.5996   -9.8498   18.1715 C   0  0  0  0  0  0  0  0  0  0  0  0
   32.3669   -8.7437   18.4587 C   0  0  0  0  0  0  0  0  0  0  0  0
   29.1450  -12.7683   14.7907 C   0  0  0  0  0  0  0  0  0  0  0  0
   29.9329  -11.6944   15.1120 C   0  0  0  0  0  0  0  0  0  0  0  0
   30.7803  -11.0867   14.2011 C   0  0  0  0  0  0  0  0  0  0  0  0
   31.7535  -11.0216   11.9499 N   0  0  0  0  0  0  0  0  0  0  0  0
   28.0753  -13.5161   15.9878 S   0  0  1  0  0  6  0  0  0  0  0  0
   28.8083  -13.7852   17.2499 O   0  0  0  0  0  0  0  0  0  0  0  0
   27.5900  -14.8139   15.4149 O   0  0  0  0  0  0  0  0  0  0  0  0
   34.0257  -11.8916    9.4135 N   0  0  0  0  0  0  0  0  0  0  0  0
   30.6326   -8.0279    6.7792 Cl  0  0  0  0  0  0  0  0  0  0  0  0
   31.5391   -9.9371   14.5666 N   0  0  0  0  0  0  0  0  0  0  0  0
   31.3643  -10.1987   16.9058 N   0  0  0  0  0  0  0  0  0  0  0  0
   32.8646   -8.0368   17.3817 C   0  0  0  0  0  0  0  0  0  0  0  0
   32.5998   -8.4281   16.1237 N   0  0  0  0  0  0  0  0  0  0  0  0
  1  2  2  0
 22  1  1  0
  1 23  1  0
  2  3  1  0
 20  3  2  0
 24  4  1  1
  5  6  1  0
  5 11  1  0
  5 23  1  1
  6 10  1  0
  6 27  2  0
  7  8  2  0
 27  7  1  0
  9  8  1  0
 10  9  2  0
 11 12  2  0
 11 16  1  0
 12 13  1  0
 13 14  2  0
 15 14  1  0
 16 15  2  0
 15 28  1  0
 29 17  1  0
 17 30  2  0
 17 32  1  0
 18 19  2  0
 30 18  1  0
 19 31  1  0
 21 20  1  0
 20 24  1  0
 22 21  2  0
 22 29  1  0
 24 25  2  0
 24 26  2  0
 31 32  2  0
M  END
$$$$
