
     RDKit          3D

 32 35  0  0  0  0  0  0  0  0999 V2000
   28.2948  -14.7517   13.1682 C   0  0  0  0  0  0  0  0  0  0  0  0
   28.9894  -14.4697   14.3441 C   0  0  0  0  0  0  0  0  0  0  0  0
   28.8748  -15.3324   15.4082 C   0  0  0  0  0  0  0  0  0  0  0  0
   26.2814  -17.7744   17.1298 C   0  0  0  0  0  0  0  0  0  0  0  0
   29.0109  -12.5366   12.1460 C   0  0  2  0  0  0  0  0  0  0  0  0
   28.1198  -11.5046   12.7373 C   0  0  0  0  0  0  0  0  0  0  0  0
   25.9471  -10.5083   12.7343 C   0  0  0  0  0  0  0  0  0  0  0  0
   26.2795   -9.5918   13.7063 C   0  0  0  0  0  0  0  0  0  0  0  0
   27.5569   -9.6451   14.1925 C   0  0  0  0  0  0  0  0  0  0  0  0
   28.4556  -10.5975   13.7032 C   0  0  0  0  0  0  0  0  0  0  0  0
   29.4614  -12.0988   10.7757 C   0  0  0  0  0  0  0  0  0  0  0  0
   28.9133  -12.6686    9.6504 C   0  0  0  0  0  0  0  0  0  0  0  0
   29.3317  -12.2715    8.3729 C   0  0  0  0  0  0  0  0  0  0  0  0
   30.2992  -11.3034    8.2131 C   0  0  0  0  0  0  0  0  0  0  0  0
   30.8439  -10.7364    9.3451 C   0  0  0  0  0  0  0  0  0  0  0  0
   30.4353  -11.1242   10.6018 C   0  0  0  0  0  0  0  0  0  0  0  0
   26.9738  -17.3933   11.1459 C   0  0  0  0  0  0  0  0  0  0  0  0
   28.1259  -19.4208   10.8933 C   0  0  0  0  0  0  0  0  0  0  0  0
   27.3970  -19.7476    9.7751 C   0  0  0  0  0  0  0  0  0  0  0  0
   28.0864  -16.4582   15.3157 C   0  0  0  0  0  0  0  0  0  0  0  0
   27.4123  -16.7139   14.1471 C   0  0  0  0  0  0  0  0  0  0  0  0
   27.5007  -15.8577   13.0324 C   0  0  0  0  0  0  0  0  0  0  0  0
   28.4770  -13.8556   12.0741 N   0  0  0  0  0  0  0  0  0  0  0  0
   27.9847  -17.5132   16.7058 S   0  0  1  0  0  6  0  0  0  0  0  0
   28.6724  -16.9172   17.9011 O   0  0  0  0  0  0  0  0  0  0  0  0
   28.6294  -18.8374   16.4015 O   0  0  0  0  0  0  0  0  0  0  0  0
   26.8233  -11.4017   12.2888 N   0  0  0  0  0  0  0  0  0  0  0  0
   32.0743   -9.5043    9.1764 Cl  0  0  0  0  0  0  0  0  0  0  0  0
   26.7681  -16.1908   11.8586 N   0  0  0  0  0  0  0  0  0  0  0  0
   27.9235  -18.2774   11.5627 N   0  0  0  0  0  0  0  0  0  0  0  0
   26.4310  -18.8418    9.3563 C   0  0  0  0  0  0  0  0  0  0  0  0
   26.2642  -17.7179   10.0522 N   0  0  0  0  0  0  0  0  0  0  0  0
  1  2  2  0
 22  1  1  0
  1 23  1  0
  2  3  1  0
 20  3  2  0
  4 24  1  6
  5  6  1  0
  5 11  1  0
  5 23  1  6
  6 10  1  0
  6 27  2  0
  7  8  2  0
 27  7  1  0
  9  8  1  0
 10  9  2  0
 11 12  2  0
 11 16  1  0
 12 13  1  0
 13 14  2  0
 15 14  1  0
 16 15  2  0
 15 28  1  0
 29 17  1  0
 17 30  2  0
 17 32  1  0
 18 19  2  0
 30 18  1  0
 19 31  1  0
 21 20  1  0
 24 20  1  6
 22 21  2  0
 22 29  1  0
 24 25  2  0
 24 26  2  0
 31 32  2  0
M  END
$$$$
