
     RDKit          3D

 32 35  0  0  0  0  0  0  0  0999 V2000
   31.7335  -11.1364   10.3887 C   0  0  0  0  0  0  0  0  0  0  0  0
   31.1782  -11.0684    9.1113 C   0  0  0  0  0  0  0  0  0  0  0  0
   29.8830  -11.4895    8.9251 C   0  0  0  0  0  0  0  0  0  0  0  0
   27.1793  -13.9916   10.5668 C   0  0  0  0  0  0  0  0  0  0  0  0
   33.9888  -10.3702    9.4994 C   0  0  2  0  0  0  0  0  0  0  0  0
   35.4260  -10.3920    9.8772 C   0  0  0  0  0  0  0  0  0  0  0  0
   37.0419   -9.9998   11.5943 C   0  0  0  0  0  0  0  0  0  0  0  0
   38.1021  -10.3349   10.7827 C   0  0  0  0  0  0  0  0  0  0  0  0
   37.8036  -10.7029    9.4996 C   0  0  0  0  0  0  0  0  0  0  0  0
   36.4746  -10.7265    9.0666 C   0  0  0  0  0  0  0  0  0  0  0  0
   33.6478   -9.0477    8.8613 C   0  0  0  0  0  0  0  0  0  0  0  0
   33.2876   -7.9737    9.6413 C   0  0  0  0  0  0  0  0  0  0  0  0
   32.9627   -6.7427    9.0550 C   0  0  0  0  0  0  0  0  0  0  0  0
   32.9963   -6.5782    7.6873 C   0  0  0  0  0  0  0  0  0  0  0  0
   33.3584   -7.6586    6.9119 C   0  0  0  0  0  0  0  0  0  0  0  0
   33.6781   -8.8696    7.4844 C   0  0  0  0  0  0  0  0  0  0  0  0
   31.2500  -10.7610   13.7982 C   0  0  0  0  0  0  0  0  0  0  0  0
   29.9153   -8.9976   14.5798 C   0  0  0  0  0  0  0  0  0  0  0  0
   30.6324   -8.9135   15.7490 C   0  0  0  0  0  0  0  0  0  0  0  0
   29.1440  -11.9715    9.9830 C   0  0  0  0  0  0  0  0  0  0  0  0
   29.7132  -12.0285   11.2313 C   0  0  0  0  0  0  0  0  0  0  0  0
   31.0364  -11.6079   11.4676 C   0  0  0  0  0  0  0  0  0  0  0  0
   33.0636  -10.6475   10.5468 N   0  0  0  0  0  0  0  0  0  0  0  0
   27.5030  -12.4904    9.6773 S   0  0  1  0  0  6  0  0  0  0  0  0
   27.2735  -12.7598    8.2172 O   0  0  0  0  0  0  0  0  0  0  0  0
   26.5318  -11.4313   10.1206 O   0  0  0  0  0  0  0  0  0  0  0  0
   35.7890  -10.0314   11.1543 N   0  0  0  0  0  0  0  0  0  0  0  0
   33.4110   -7.4825    5.1722 Cl  0  0  0  0  0  0  0  0  0  0  0  0
   31.5547  -11.7024   12.7897 N   0  0  0  0  0  0  0  0  0  0  0  0
   30.2121   -9.8942   13.6288 N   0  0  0  0  0  0  0  0  0  0  0  0
   31.6886   -9.7999   15.9147 C   0  0  0  0  0  0  0  0  0  0  0  0
   31.9476  -10.6742   14.9432 N   0  0  0  0  0  0  0  0  0  0  0  0
  1  2  2  0
 22  1  1  0
  1 23  1  0
  2  3  1  0
 20  3  2  0
  4 24  1  6
  5  6  1  0
  5 11  1  0
  5 23  1  1
  6 10  1  0
  6 27  2  0
  7  8  2  0
 27  7  1  0
  9  8  1  0
 10  9  2  0
 11 12  2  0
 11 16  1  0
 12 13  1  0
 13 14  2  0
 15 14  1  0
 16 15  2  0
 15 28  1  0
 29 17  1  0
 17 30  2  0
 17 32  1  0
 18 19  2  0
 30 18  1  0
 19 31  1  0
 21 20  1  0
 24 20  1  6
 22 21  2  0
 22 29  1  0
 24 25  2  0
 24 26  2  0
 31 32  2  0
M  END
$$$$
