
     RDKit          3D

 32 35  0  0  0  0  0  0  0  0999 V2000
   31.4678  -10.3628   10.4638 C   0  0  0  0  0  0  0  0  0  0  0  0
   31.0797  -10.9098    9.2572 C   0  0  0  0  0  0  0  0  0  0  0  0
   29.8272  -11.4877    9.0465 C   0  0  0  0  0  0  0  0  0  0  0  0
   26.2230  -10.9507    9.3920 C   0  0  0  0  0  0  0  0  0  0  0  0
   33.8722   -9.8638    9.7525 C   0  0  2  0  0  0  0  0  0  0  0  0
   35.1321   -9.7898   10.5448 C   0  0  0  0  0  0  0  0  0  0  0  0
   36.3028   -9.1241   12.4738 C   0  0  0  0  0  0  0  0  0  0  0  0
   37.4462   -9.7169   11.9774 C   0  0  0  0  0  0  0  0  0  0  0  0
   37.4181  -10.3463   10.7564 C   0  0  0  0  0  0  0  0  0  0  0  0
   36.2673  -10.4047   10.0015 C   0  0  0  0  0  0  0  0  0  0  0  0
   33.8276   -8.8407    8.6895 C   0  0  0  0  0  0  0  0  0  0  0  0
   33.5957   -7.5100    9.0207 C   0  0  0  0  0  0  0  0  0  0  0  0
   33.5466   -6.5220    8.0515 C   0  0  0  0  0  0  0  0  0  0  0  0
   33.7263   -6.8203    6.7172 C   0  0  0  0  0  0  0  0  0  0  0  0
   33.9558   -8.1422    6.3968 C   0  0  0  0  0  0  0  0  0  0  0  0
   34.0075   -9.1429    7.3589 C   0  0  0  0  0  0  0  0  0  0  0  0
   30.7913  -10.4059   14.0212 C   0  0  0  0  0  0  0  0  0  0  0  0
   31.0074  -10.0681   16.3491 C   0  0  0  0  0  0  0  0  0  0  0  0
   30.7700  -11.4016   16.5945 C   0  0  0  0  0  0  0  0  0  0  0  0
   28.9294  -11.5252   10.0661 C   0  0  0  0  0  0  0  0  0  0  0  0
   29.2904  -10.9885   11.2739 C   0  0  0  0  0  0  0  0  0  0  0  0
   30.5287  -10.4112   11.4981 C   0  0  0  0  0  0  0  0  0  0  0  0
   32.7666   -9.8412   10.6699 N   0  0  0  0  0  0  0  0  0  0  0  0
   27.3342  -12.2551    9.8228 S   0  0  1  0  0  6  0  0  0  0  0  0
   26.9116  -13.0057   11.0314 O   0  0  0  0  0  0  0  0  0  0  0  0
   27.4406  -13.2042    8.6670 O   0  0  0  0  0  0  0  0  0  0  0  0
   35.1850   -9.1827   11.7370 N   0  0  0  0  0  0  0  0  0  0  0  0
   34.1914   -8.5751    4.7117 Cl  0  0  0  0  0  0  0  0  0  0  0  0
   30.8382   -9.8159   12.7554 N   0  0  0  0  0  0  0  0  0  0  0  0
   31.0144   -9.6020   15.0993 N   0  0  0  0  0  0  0  0  0  0  0  0
   30.5456  -12.2051   15.4938 C   0  0  0  0  0  0  0  0  0  0  0  0
   30.5628  -11.6885   14.2534 N   0  0  0  0  0  0  0  0  0  0  0  0
  1  2  2  0
 22  1  1  0
  1 23  1  0
  2  3  1  0
 20  3  2  0
 24  4  1  6
  5  6  1  0
  5 11  1  0
  5 23  1  1
  6 10  1  0
  6 27  2  0
  7  8  2  0
 27  7  1  0
  9  8  1  0
 10  9  2  0
 11 12  2  0
 11 16  1  0
 12 13  1  0
 13 14  2  0
 15 14  1  0
 16 15  2  0
 15 28  1  0
 29 17  1  0
 17 30  2  0
 17 32  1  0
 18 19  2  0
 30 18  1  0
 19 31  1  0
 21 20  1  0
 20 24  1  0
 22 21  2  0
 22 29  1  0
 24 25  2  0
 24 26  2  0
 31 32  2  0
M  END
$$$$
