
     RDKit          3D

 32 35  0  0  0  0  0  0  0  0999 V2000
   31.6710   -9.7998   10.4282 C   0  0  0  0  0  0  0  0  0  0  0  0
   31.7173   -9.9188    9.0395 C   0  0  0  0  0  0  0  0  0  0  0  0
   32.5166   -9.0594    8.3240 C   0  0  0  0  0  0  0  0  0  0  0  0
   35.9210   -7.6481    7.9653 C   0  0  0  0  0  0  0  0  0  0  0  0
   30.0925  -11.7888   10.5582 C   0  0  2  0  0  0  0  0  0  0  0  0
   28.7024  -11.9287   11.0649 C   0  0  0  0  0  0  0  0  0  0  0  0
   26.4415  -12.5077   10.5489 C   0  0  0  0  0  0  0  0  0  0  0  0
   25.9965  -12.2289   11.8214 C   0  0  0  0  0  0  0  0  0  0  0  0
   26.9317  -11.7939   12.7198 C   0  0  0  0  0  0  0  0  0  0  0  0
   28.2666  -11.6508   12.3304 C   0  0  0  0  0  0  0  0  0  0  0  0
   30.8257  -13.0973   10.7084 C   0  0  0  0  0  0  0  0  0  0  0  0
   30.9396  -13.6906   11.9440 C   0  0  0  0  0  0  0  0  0  0  0  0
   31.6255  -14.9038   12.0929 C   0  0  0  0  0  0  0  0  0  0  0  0
   32.2005  -15.5306   11.0087 C   0  0  0  0  0  0  0  0  0  0  0  0
   32.0821  -14.9306    9.7736 C   0  0  0  0  0  0  0  0  0  0  0  0
   31.4091  -13.7385    9.6235 C   0  0  0  0  0  0  0  0  0  0  0  0
   33.5610   -8.6245   13.2936 C   0  0  0  0  0  0  0  0  0  0  0  0
   35.8972   -8.4431   13.4013 C   0  0  0  0  0  0  0  0  0  0  0  0
   35.8829   -8.4954   14.7745 C   0  0  0  0  0  0  0  0  0  0  0  0
   33.2606   -8.0950    8.9675 C   0  0  0  0  0  0  0  0  0  0  0  0
   33.1979   -7.9978   10.3357 C   0  0  0  0  0  0  0  0  0  0  0  0
   32.3927   -8.8570   11.1083 C   0  0  0  0  0  0  0  0  0  0  0  0
   30.8649  -10.7398   11.1353 N   0  0  0  0  0  0  0  0  0  0  0  0
   34.2561   -7.0345    7.9978 S   0  0  1  0  0  6  0  0  0  0  0  0
   34.2877   -5.6419    8.5604 O   0  0  0  0  0  0  0  0  0  0  0  0
   33.7252   -6.9644    6.5925 O   0  0  0  0  0  0  0  0  0  0  0  0
   27.7170  -12.3617   10.2081 N   0  0  0  0  0  0  0  0  0  0  0  0
   32.8008  -15.7010    8.3770 Cl  0  0  0  0  0  0  0  0  0  0  0  0
   32.3796   -8.6895   12.5215 N   0  0  0  0  0  0  0  0  0  0  0  0
   34.7708   -8.5055   12.6775 N   0  0  0  0  0  0  0  0  0  0  0  0
   34.6465   -8.6167   15.3953 C   0  0  0  0  0  0  0  0  0  0  0  0
   33.5531   -8.6752   14.6362 N   0  0  0  0  0  0  0  0  0  0  0  0
  1  2  2  0
 22  1  1  0
  1 23  1  0
  2  3  1  0
 20  3  2  0
  4 24  1  6
  5  6  1  0
  5 11  1  0
  5 23  1  1
  6 10  1  0
  6 27  2  0
  7  8  2  0
 27  7  1  0
  9  8  1  0
 10  9  2  0
 11 12  2  0
 11 16  1  0
 12 13  1  0
 13 14  2  0
 15 14  1  0
 16 15  2  0
 15 28  1  0
 29 17  1  0
 17 30  2  0
 17 32  1  0
 18 19  2  0
 30 18  1  0
 19 31  1  0
 21 20  1  0
 24 20  1  1
 22 21  2  0
 22 29  1  0
 24 25  2  0
 24 26  2  0
 31 32  2  0
M  END
$$$$
