
     RDKit          3D

 32 35  0  0  0  0  0  0  0  0999 V2000
   36.6520   -7.5227   12.7694 C   0  0  0  0  0  0  0  0  0  0  0  0
   35.5186   -7.0295   13.4151 C   0  0  0  0  0  0  0  0  0  0  0  0
   35.6702   -6.3525   14.6018 C   0  0  0  0  0  0  0  0  0  0  0  0
   37.5134   -6.4144   17.9509 C   0  0  0  0  0  0  0  0  0  0  0  0
   35.2046   -8.5873   10.9705 C   0  0  2  0  0  0  0  0  0  0  0  0
   35.1868   -9.9187   10.3104 C   0  0  0  0  0  0  0  0  0  0  0  0
   36.3889  -11.5015    8.9827 C   0  0  0  0  0  0  0  0  0  0  0  0
   35.3430  -12.3963    8.9608 C   0  0  0  0  0  0  0  0  0  0  0  0
   34.2067  -12.0325    9.6295 C   0  0  0  0  0  0  0  0  0  0  0  0
   34.1449  -10.8034   10.2928 C   0  0  0  0  0  0  0  0  0  0  0  0
   34.7053   -7.5352   10.0133 C   0  0  0  0  0  0  0  0  0  0  0  0
   33.3770   -7.1788   10.0057 C   0  0  0  0  0  0  0  0  0  0  0  0
   32.9038   -6.2062    9.1142 C   0  0  0  0  0  0  0  0  0  0  0  0
   33.7548   -5.5848    8.2262 C   0  0  0  0  0  0  0  0  0  0  0  0
   35.0847   -5.9466    8.2396 C   0  0  0  0  0  0  0  0  0  0  0  0
   35.5531   -6.9019    9.1140 C   0  0  0  0  0  0  0  0  0  0  0  0
   40.2679   -8.1563   13.3927 C   0  0  0  0  0  0  0  0  0  0  0  0
   41.3365   -8.4497   15.4601 C   0  0  0  0  0  0  0  0  0  0  0  0
   42.5279   -8.7624   14.8508 C   0  0  0  0  0  0  0  0  0  0  0  0
   36.9216   -6.1636   15.1458 C   0  0  0  0  0  0  0  0  0  0  0  0
   38.0221   -6.6589   14.4910 C   0  0  0  0  0  0  0  0  0  0  0  0
   37.9134   -7.3584   13.2735 C   0  0  0  0  0  0  0  0  0  0  0  0
   36.4546   -8.1789   11.5190 N   0  0  0  0  0  0  0  0  0  0  0  0
   37.0438   -5.2939   16.6573 S   0  0  1  0  0  6  0  0  0  0  0  0
   35.7325   -4.6690   17.0407 O   0  0  0  0  0  0  0  0  0  0  0  0
   38.0729   -4.2029   16.5474 O   0  0  0  0  0  0  0  0  0  0  0  0
   36.3006  -10.3403    9.6215 N   0  0  0  0  0  0  0  0  0  0  0  0
   36.1911   -5.1762    7.1248 Cl  0  0  0  0  0  0  0  0  0  0  0  0
   39.1018   -7.8436   12.6588 N   0  0  0  0  0  0  0  0  0  0  0  0
   40.2354   -8.1544   14.7552 N   0  0  0  0  0  0  0  0  0  0  0  0
   42.5534   -8.7623   13.4622 C   0  0  0  0  0  0  0  0  0  0  0  0
   41.4354   -8.4627   12.8024 N   0  0  0  0  0  0  0  0  0  0  0  0
  1  2  2  0
 22  1  1  0
  1 23  1  0
  2  3  1  0
 20  3  2  0
  4 24  1  6
  5  6  1  0
  5 11  1  0
  5 23  1  6
  6 10  1  0
  6 27  2  0
  7  8  2  0
 27  7  1  0
  9  8  1  0
 10  9  2  0
 11 12  2  0
 11 16  1  0
 12 13  1  0
 13 14  2  0
 15 14  1  0
 16 15  2  0
 15 28  1  0
 29 17  1  0
 17 30  2  0
 17 32  1  0
 18 19  2  0
 30 18  1  0
 19 31  1  0
 21 20  1  0
 24 20  1  6
 22 21  2  0
 22 29  1  0
 24 25  2  0
 24 26  2  0
 31 32  2  0
M  END
$$$$
