
     RDKit          3D

 32 35  0  0  0  0  0  0  0  0999 V2000
   32.3041   -9.7023    9.6029 C   0  0  0  0  0  0  0  0  0  0  0  0
   32.0877   -9.9635    8.2502 C   0  0  0  0  0  0  0  0  0  0  0  0
   32.9422   -9.4183    7.3219 C   0  0  0  0  0  0  0  0  0  0  0  0
   34.3372   -6.4686    5.8463 C   0  0  0  0  0  0  0  0  0  0  0  0
   30.5185  -11.3900   10.2569 C   0  0  2  0  0  0  0  0  0  0  0  0
   29.0833  -11.0178   10.1551 C   0  0  0  0  0  0  0  0  0  0  0  0
   27.3195   -9.6336   10.9835 C   0  0  0  0  0  0  0  0  0  0  0  0
   26.3821  -10.1883   10.1416 C   0  0  0  0  0  0  0  0  0  0  0  0
   26.8176  -11.1729    9.2979 C   0  0  0  0  0  0  0  0  0  0  0  0
   28.1572  -11.5721    9.3162 C   0  0  0  0  0  0  0  0  0  0  0  0
   30.6925  -12.4801   11.2835 C   0  0  0  0  0  0  0  0  0  0  0  0
   29.6409  -12.8474   12.0902 C   0  0  0  0  0  0  0  0  0  0  0  0
   29.7967  -13.8554   13.0515 C   0  0  0  0  0  0  0  0  0  0  0  0
   31.0031  -14.5016   13.2117 C   0  0  0  0  0  0  0  0  0  0  0  0
   32.0525  -14.1286   12.3998 C   0  0  0  0  0  0  0  0  0  0  0  0
   31.9032  -13.1386   11.4543 C   0  0  0  0  0  0  0  0  0  0  0  0
   34.8889   -8.2761   11.8794 C   0  0  0  0  0  0  0  0  0  0  0  0
   36.3018   -7.7004   13.6611 C   0  0  0  0  0  0  0  0  0  0  0  0
   37.3891   -7.6032   12.8264 C   0  0  0  0  0  0  0  0  0  0  0  0
   33.9964   -8.6259    7.7201 C   0  0  0  0  0  0  0  0  0  0  0  0
   34.1883   -8.3833    9.0579 C   0  0  0  0  0  0  0  0  0  0  0  0
   33.3378   -8.9213   10.0431 C   0  0  0  0  0  0  0  0  0  0  0  0
   31.4219  -10.3239   10.5349 N   0  0  0  0  0  0  0  0  0  0  0  0
   35.0451   -7.9640    6.4882 S   0  0  1  0  0  6  0  0  0  0  0  0
   35.2217   -8.9203    5.3431 O   0  0  0  0  0  0  0  0  0  0  0  0
   36.4006   -7.6636    7.0661 O   0  0  0  0  0  0  0  0  0  0  0  0
   28.5859  -10.0340   10.9783 N   0  0  0  0  0  0  0  0  0  0  0  0
   33.5974  -14.9299   12.5780 Cl  0  0  0  0  0  0  0  0  0  0  0  0
   33.6019   -8.6198   11.4087 N   0  0  0  0  0  0  0  0  0  0  0  0
   35.0846   -8.0272   13.2050 N   0  0  0  0  0  0  0  0  0  0  0  0
   37.1821   -7.8582   11.4770 C   0  0  0  0  0  0  0  0  0  0  0  0
   35.9554   -8.1796   11.0681 N   0  0  0  0  0  0  0  0  0  0  0  0
  1  2  2  0
 22  1  1  0
  1 23  1  0
  2  3  1  0
 20  3  2  0
  4 24  1  6
  5  6  1  0
  5 11  1  0
  5 23  1  1
  6 10  1  0
  6 27  2  0
  7  8  2  0
 27  7  1  0
  9  8  1  0
 10  9  2  0
 11 12  2  0
 11 16  1  0
 12 13  1  0
 13 14  2  0
 15 14  1  0
 16 15  2  0
 15 28  1  0
 29 17  1  0
 17 30  2  0
 17 32  1  0
 18 19  2  0
 30 18  1  0
 19 31  1  0
 21 20  1  0
 24 20  1  1
 22 21  2  0
 22 29  1  0
 24 25  2  0
 24 26  2  0
 31 32  2  0
M  END
$$$$
