
     RDKit          3D

 32 35  0  0  0  0  0  0  0  0999 V2000
   30.8160  -10.7963   12.5765 C   0  0  0  0  0  0  0  0  0  0  0  0
   29.5532  -11.2944   12.3258 C   0  0  0  0  0  0  0  0  0  0  0  0
   28.6421  -11.6125   13.3337 C   0  0  0  0  0  0  0  0  0  0  0  0
   28.5963  -13.1046   16.9031 C   0  0  0  0  0  0  0  0  0  0  0  0
   31.6146  -10.8842   10.1494 C   0  0  2  0  0  0  0  0  0  0  0  0
   32.4875  -12.0613    9.8791 C   0  0  0  0  0  0  0  0  0  0  0  0
   34.5718  -13.1424   10.0251 C   0  0  0  0  0  0  0  0  0  0  0  0
   34.0336  -14.2513    9.4039 C   0  0  0  0  0  0  0  0  0  0  0  0
   32.7134  -14.2515    9.0235 C   0  0  0  0  0  0  0  0  0  0  0  0
   31.8985  -13.1634    9.2462 C   0  0  0  0  0  0  0  0  0  0  0  0
   31.8697   -9.7791    9.2047 C   0  0  0  0  0  0  0  0  0  0  0  0
   30.9474   -9.5008    8.2016 C   0  0  0  0  0  0  0  0  0  0  0  0
   31.1520   -8.4726    7.2968 C   0  0  0  0  0  0  0  0  0  0  0  0
   32.2809   -7.6829    7.3556 C   0  0  0  0  0  0  0  0  0  0  0  0
   33.1908   -7.9651    8.3532 C   0  0  0  0  0  0  0  0  0  0  0  0
   32.9980   -8.9935    9.2671 C   0  0  0  0  0  0  0  0  0  0  0  0
   32.6910   -8.9976   15.1288 C   0  0  0  0  0  0  0  0  0  0  0  0
   31.7716   -7.3447   16.5438 C   0  0  0  0  0  0  0  0  0  0  0  0
   33.0262   -6.8734   16.8577 C   0  0  0  0  0  0  0  0  0  0  0  0
   28.9945  -11.4312   14.6337 C   0  0  0  0  0  0  0  0  0  0  0  0
   30.2426  -10.9375   14.9089 C   0  0  0  0  0  0  0  0  0  0  0  0
   31.1572  -10.6167   13.9201 C   0  0  0  0  0  0  0  0  0  0  0  0
   31.7439  -10.5429   11.5391 N   0  0  0  0  0  0  0  0  0  0  0  0
   27.8555  -11.8293   15.9301 S   0  0  1  0  0  6  0  0  0  0  0  0
   26.5370  -12.2156   15.3688 O   0  0  0  0  0  0  0  0  0  0  0  0
   27.6885  -10.6052   16.7795 O   0  0  0  0  0  0  0  0  0  0  0  0
   33.7765  -12.0855   10.2403 N   0  0  0  0  0  0  0  0  0  0  0  0
   34.6453   -6.9889    8.4719 Cl  0  0  0  0  0  0  0  0  0  0  0  0
   32.4231  -10.0534   14.2535 N   0  0  0  0  0  0  0  0  0  0  0  0
   31.6260   -8.3726   15.7062 N   0  0  0  0  0  0  0  0  0  0  0  0
   34.0965   -7.5152   16.2660 C   0  0  0  0  0  0  0  0  0  0  0  0
   33.8988   -8.5471   15.4282 N   0  0  0  0  0  0  0  0  0  0  0  0
  1  2  2  0
 22  1  1  0
  1 23  1  0
  2  3  1  0
 20  3  2  0
 24  4  1  1
  5  6  1  0
  5 11  1  0
  5 23  1  1
  6 10  1  0
  6 27  2  0
  7  8  2  0
 27  7  1  0
  9  8  1  0
 10  9  2  0
 11 12  2  0
 11 16  1  0
 12 13  1  0
 13 14  2  0
 15 14  1  0
 16 15  2  0
 15 28  1  0
 29 17  1  0
 17 30  2  0
 17 32  1  0
 18 19  2  0
 30 18  1  0
 19 31  1  0
 21 20  1  0
 20 24  1  0
 22 21  2  0
 22 29  1  0
 24 25  2  0
 24 26  2  0
 31 32  2  0
M  END
$$$$
