
     RDKit          3D

 32 35  0  0  0  0  0  0  0  0999 V2000
   33.5887   -8.9102   10.3898 C   0  0  0  0  0  0  0  0  0  0  0  0
   33.0029   -8.6162    9.1588 C   0  0  0  0  0  0  0  0  0  0  0  0
   33.5443   -7.6168    8.3858 C   0  0  0  0  0  0  0  0  0  0  0  0
   36.6934   -6.2744    6.8989 C   0  0  0  0  0  0  0  0  0  0  0  0
   31.7343  -10.5581   10.9466 C   0  0  2  0  0  0  0  0  0  0  0  0
   31.0523  -11.0535   12.1707 C   0  0  0  0  0  0  0  0  0  0  0  0
   31.2751  -11.6427   14.4764 C   0  0  0  0  0  0  0  0  0  0  0  0
   29.9532  -12.0092   14.5920 C   0  0  0  0  0  0  0  0  0  0  0  0
   29.1803  -11.8900   13.4698 C   0  0  0  0  0  0  0  0  0  0  0  0
   29.7387  -11.4153   12.2794 C   0  0  0  0  0  0  0  0  0  0  0  0
   31.8215  -11.6646    9.9266 C   0  0  0  0  0  0  0  0  0  0  0  0
   30.8832  -11.7608    8.9257 C   0  0  0  0  0  0  0  0  0  0  0  0
   30.9538  -12.7906    7.9775 C   0  0  0  0  0  0  0  0  0  0  0  0
   31.9617  -13.7290    8.0241 C   0  0  0  0  0  0  0  0  0  0  0  0
   32.8987  -13.6263    9.0296 C   0  0  0  0  0  0  0  0  0  0  0  0
   32.8325  -12.6159    9.9630 C   0  0  0  0  0  0  0  0  0  0  0  0
   36.6470   -8.1006   12.3845 C   0  0  0  0  0  0  0  0  0  0  0  0
   38.5843   -6.9405   11.7494 C   0  0  0  0  0  0  0  0  0  0  0  0
   39.2389   -7.3139   12.8987 C   0  0  0  0  0  0  0  0  0  0  0  0
   34.6481   -6.9158    8.8191 C   0  0  0  0  0  0  0  0  0  0  0  0
   35.2066   -7.2239   10.0350 C   0  0  0  0  0  0  0  0  0  0  0  0
   34.6851   -8.2397   10.8594 C   0  0  0  0  0  0  0  0  0  0  0  0
   33.0238   -9.9837   11.1393 N   0  0  0  0  0  0  0  0  0  0  0  0
   35.2863   -5.6574    7.7871 S   0  0  1  0  0  6  0  0  0  0  0  0
   35.7299   -4.4637    8.5841 O   0  0  0  0  0  0  0  0  0  0  0  0
   34.2382   -5.2080    6.8067 O   0  0  0  0  0  0  0  0  0  0  0  0
   31.7775  -11.1950   13.3312 N   0  0  0  0  0  0  0  0  0  0  0  0
   34.1913  -14.8020    9.1164 Cl  0  0  0  0  0  0  0  0  0  0  0  0
   35.3192   -8.4960   12.1075 N   0  0  0  0  0  0  0  0  0  0  0  0
   37.3244   -7.3207   11.4955 N   0  0  0  0  0  0  0  0  0  0  0  0
   38.5424   -8.1086   13.7999 C   0  0  0  0  0  0  0  0  0  0  0  0
   37.2919   -8.4626   13.5063 N   0  0  0  0  0  0  0  0  0  0  0  0
  1  2  2  0
 22  1  1  0
  1 23  1  0
  2  3  1  0
 20  3  2  0
  4 24  1  6
  5  6  1  0
  5 11  1  0
  5 23  1  1
  6 10  1  0
  6 27  2  0
  7  8  2  0
 27  7  1  0
  9  8  1  0
 10  9  2  0
 11 12  2  0
 11 16  1  0
 12 13  1  0
 13 14  2  0
 15 14  1  0
 16 15  2  0
 15 28  1  0
 29 17  1  0
 17 30  2  0
 17 32  1  0
 18 19  2  0
 30 18  1  0
 19 31  1  0
 21 20  1  0
 24 20  1  1
 22 21  2  0
 22 29  1  0
 24 25  2  0
 24 26  2  0
 31 32  2  0
M  END
$$$$
