
     RDKit          3D

 32 35  0  0  0  0  0  0  0  0999 V2000
   28.7591  -14.8637   12.8640 C   0  0  0  0  0  0  0  0  0  0  0  0
   30.0534  -15.3671   12.9913 C   0  0  0  0  0  0  0  0  0  0  0  0
   30.2237  -16.6987   13.2868 C   0  0  0  0  0  0  0  0  0  0  0  0
   30.1015  -20.0241   12.4083 C   0  0  0  0  0  0  0  0  0  0  0  0
   29.6890  -12.5459   12.3872 C   0  0  2  0  0  0  0  0  0  0  0  0
   29.5999  -11.3449   13.2581 C   0  0  0  0  0  0  0  0  0  0  0  0
   28.1798   -9.9180   14.5466 C   0  0  0  0  0  0  0  0  0  0  0  0
   29.2126   -9.0809   14.9039 C   0  0  0  0  0  0  0  0  0  0  0  0
   30.4541   -9.3940   14.4229 C   0  0  0  0  0  0  0  0  0  0  0  0
   30.6297  -10.5177   13.6100 C   0  0  0  0  0  0  0  0  0  0  0  0
   29.8224  -12.1238   10.9462 C   0  0  0  0  0  0  0  0  0  0  0  0
   28.7286  -11.6555   10.2565 C   0  0  0  0  0  0  0  0  0  0  0  0
   28.8432  -11.2674    8.9146 C   0  0  0  0  0  0  0  0  0  0  0  0
   30.0506  -11.3448    8.2551 C   0  0  0  0  0  0  0  0  0  0  0  0
   31.1426  -11.8147    8.9524 C   0  0  0  0  0  0  0  0  0  0  0  0
   31.0337  -12.1971   10.2710 C   0  0  0  0  0  0  0  0  0  0  0  0
   25.2435  -15.7346   13.6578 C   0  0  0  0  0  0  0  0  0  0  0  0
   24.4925  -17.2199   15.3107 C   0  0  0  0  0  0  0  0  0  0  0  0
   23.1877  -16.8254   15.1359 C   0  0  0  0  0  0  0  0  0  0  0  0
   29.1338  -17.5241   13.4549 C   0  0  0  0  0  0  0  0  0  0  0  0
   27.8694  -17.0046   13.3246 C   0  0  0  0  0  0  0  0  0  0  0  0
   27.6484  -15.6469   13.0227 C   0  0  0  0  0  0  0  0  0  0  0  0
   28.6276  -13.4881   12.5124 N   0  0  0  0  0  0  0  0  0  0  0  0
   29.4208  -19.2073   13.8292 S   0  0  1  0  0  6  0  0  0  0  0  0
   28.1483  -19.9133   14.2026 O   0  0  0  0  0  0  0  0  0  0  0  0
   30.3826  -19.3273   14.9791 O   0  0  0  0  0  0  0  0  0  0  0  0
   28.3774  -10.9788   13.7720 N   0  0  0  0  0  0  0  0  0  0  0  0
   32.6900  -11.9251    8.1438 Cl  0  0  0  0  0  0  0  0  0  0  0  0
   26.3072  -15.1848   12.9078 N   0  0  0  0  0  0  0  0  0  0  0  0
   25.4949  -16.6923   14.5942 N   0  0  0  0  0  0  0  0  0  0  0  0
   22.9392  -15.8491   14.1799 C   0  0  0  0  0  0  0  0  0  0  0  0
   23.9661  -15.3528   13.4912 N   0  0  0  0  0  0  0  0  0  0  0  0
  1  2  2  0
 22  1  1  0
  1 23  1  0
  2  3  1  0
 20  3  2  0
  4 24  1  6
  5  6  1  0
  5 11  1  0
  5 23  1  6
  6 10  1  0
  6 27  2  0
  7  8  2  0
 27  7  1  0
  9  8  1  0
 10  9  2  0
 11 12  2  0
 11 16  1  0
 12 13  1  0
 13 14  2  0
 15 14  1  0
 16 15  2  0
 15 28  1  0
 29 17  1  0
 17 30  2  0
 17 32  1  0
 18 19  2  0
 30 18  1  0
 19 31  1  0
 21 20  1  0
 24 20  1  6
 22 21  2  0
 22 29  1  0
 24 25  2  0
 24 26  2  0
 31 32  2  0
M  END
$$$$
