
     RDKit          3D

 32 35  0  0  0  0  0  0  0  0999 V2000
   28.6877  -14.2835   13.3012 C   0  0  0  0  0  0  0  0  0  0  0  0
   28.4225  -13.4334   14.3559 C   0  0  0  0  0  0  0  0  0  0  0  0
   27.9647  -13.8746   15.5980 C   0  0  0  0  0  0  0  0  0  0  0  0
   28.5615  -16.5036   18.2054 C   0  0  0  0  0  0  0  0  0  0  0  0
   29.2566  -12.4358   11.6283 C   0  0  2  0  0  0  0  0  0  0  0  0
   28.0779  -12.0496   10.8025 C   0  0  0  0  0  0  0  0  0  0  0  0
   26.5228  -12.5263    9.1027 C   0  0  0  0  0  0  0  0  0  0  0  0
   25.8947  -11.3219    9.3476 C   0  0  0  0  0  0  0  0  0  0  0  0
   26.3715  -10.4864   10.3285 C   0  0  0  0  0  0  0  0  0  0  0  0
   27.4731  -10.8184   11.0860 C   0  0  0  0  0  0  0  0  0  0  0  0
   30.5308  -12.1331   10.9474 C   0  0  0  0  0  0  0  0  0  0  0  0
   31.1550  -10.9089   11.1620 C   0  0  0  0  0  0  0  0  0  0  0  0
   32.3507  -10.5888   10.5412 C   0  0  0  0  0  0  0  0  0  0  0  0
   32.9703  -11.4737    9.6840 C   0  0  0  0  0  0  0  0  0  0  0  0
   32.3451  -12.6855    9.4762 C   0  0  0  0  0  0  0  0  0  0  0  0
   31.1456  -13.0193   10.0926 C   0  0  0  0  0  0  0  0  0  0  0  0
   28.3495  -17.9132   12.4023 C   0  0  0  0  0  0  0  0  0  0  0  0
   28.1444  -19.7997   10.9958 C   0  0  0  0  0  0  0  0  0  0  0  0
   27.5345  -20.5183   11.9989 C   0  0  0  0  0  0  0  0  0  0  0  0
   27.7624  -15.2031   15.8014 C   0  0  0  0  0  0  0  0  0  0  0  0
   28.0186  -16.0679   14.7700 C   0  0  0  0  0  0  0  0  0  0  0  0
   28.4737  -15.6454   13.5324 C   0  0  0  0  0  0  0  0  0  0  0  0
   29.0891  -13.8046   12.0319 N   0  0  0  0  0  0  0  0  0  0  0  0
   27.1801  -15.7866   17.3689 S   0  0  1  0  0  6  0  0  0  0  0  0
   26.0516  -16.7336   17.1893 O   0  0  0  0  0  0  0  0  0  0  0  0
   26.7044  -14.5971   18.1479 O   0  0  0  0  0  0  0  0  0  0  0  0
   27.5942  -12.8464    9.8414 N   0  0  0  0  0  0  0  0  0  0  0  0
   33.0928  -13.8482    8.3938 Cl  0  0  0  0  0  0  0  0  0  0  0  0
   28.7796  -16.5878   12.5081 N   0  0  0  0  0  0  0  0  0  0  0  0
   28.5328  -18.5411   11.2064 N   0  0  0  0  0  0  0  0  0  0  0  0
   27.3547  -19.8705   13.2055 C   0  0  0  0  0  0  0  0  0  0  0  0
   27.7633  -18.6009   13.3691 N   0  0  0  0  0  0  0  0  0  0  0  0
  1  2  2  0
 22  1  1  0
  1 23  1  0
  2  3  1  0
 20  3  2  0
 24  4  1  1
  5  6  1  0
  5 11  1  0
  5 23  1  6
  6 10  1  0
  6 27  2  0
  7  8  2  0
 27  7  1  0
  9  8  1  0
 10  9  2  0
 11 12  2  0
 11 16  1  0
 12 13  1  0
 13 14  2  0
 15 14  1  0
 16 15  2  0
 15 28  1  0
 29 17  1  0
 17 30  2  0
 17 32  1  0
 18 19  2  0
 30 18  1  0
 19 31  1  0
 21 20  1  0
 20 24  1  0
 22 21  2  0
 22 29  1  0
 24 25  2  0
 24 26  2  0
 31 32  2  0
M  END
$$$$
