
     RDKit          3D

 32 35  0  0  0  0  0  0  0  0999 V2000
   32.5545   -9.2374   10.2485 C   0  0  0  0  0  0  0  0  0  0  0  0
   31.9271   -8.8916    9.0685 C   0  0  0  0  0  0  0  0  0  0  0  0
   32.5434   -8.1434    8.0648 C   0  0  0  0  0  0  0  0  0  0  0  0
   34.7195   -5.1058    7.5608 C   0  0  0  0  0  0  0  0  0  0  0  0
   31.0174  -11.0773   11.1363 C   0  0  2  0  0  0  0  0  0  0  0  0
   30.4150  -11.3672   12.4681 C   0  0  0  0  0  0  0  0  0  0  0  0
   30.5798  -11.4682   14.8127 C   0  0  0  0  0  0  0  0  0  0  0  0
   29.2600  -11.8661   14.8825 C   0  0  0  0  0  0  0  0  0  0  0  0
   28.5253  -12.0113   13.7306 C   0  0  0  0  0  0  0  0  0  0  0  0
   29.0732  -11.7685   12.4903 C   0  0  0  0  0  0  0  0  0  0  0  0
   31.6412  -12.2748   10.5400 C   0  0  0  0  0  0  0  0  0  0  0  0
   31.8745  -12.3226    9.1698 C   0  0  0  0  0  0  0  0  0  0  0  0
   32.4574  -13.4285    8.5742 C   0  0  0  0  0  0  0  0  0  0  0  0
   32.8300  -14.5280    9.3185 C   0  0  0  0  0  0  0  0  0  0  0  0
   32.5954  -14.4730   10.6767 C   0  0  0  0  0  0  0  0  0  0  0  0
   32.0115  -13.3699   11.2869 C   0  0  0  0  0  0  0  0  0  0  0  0
   35.9482   -8.9197   11.8558 C   0  0  0  0  0  0  0  0  0  0  0  0
   37.6719   -9.0854   13.4623 C   0  0  0  0  0  0  0  0  0  0  0  0
   38.5687   -8.4894   12.6049 C   0  0  0  0  0  0  0  0  0  0  0  0
   33.8245   -7.7233    8.2366 C   0  0  0  0  0  0  0  0  0  0  0  0
   34.4695   -8.0538    9.3993 C   0  0  0  0  0  0  0  0  0  0  0  0
   33.8717   -8.7959   10.4038 C   0  0  0  0  0  0  0  0  0  0  0  0
   31.8859   -9.9414   11.2775 N   0  0  0  0  0  0  0  0  0  0  0  0
   34.6269   -6.7710    6.9773 S   0  0  1  0  0  6  0  0  0  0  0  0
   33.9064   -6.8971    5.6859 O   0  0  0  0  0  0  0  0  0  0  0  0
   36.0176   -7.3082    6.8187 O   0  0  0  0  0  0  0  0  0  0  0  0
   31.1099  -11.2329   13.6046 N   0  0  0  0  0  0  0  0  0  0  0  0
   33.0516  -15.8470   11.6700 Cl  0  0  0  0  0  0  0  0  0  0  0  0
   34.6017   -9.1625   11.5716 N   0  0  0  0  0  0  0  0  0  0  0  0
   36.4083   -9.2866   13.0854 N   0  0  0  0  0  0  0  0  0  0  0  0
   38.0899   -8.1225   11.3624 C   0  0  0  0  0  0  0  0  0  0  0  0
   36.8076   -8.3464   11.0288 N   0  0  0  0  0  0  0  0  0  0  0  0
  1  2  2  0
 22  1  1  0
  1 23  1  0
  2  3  1  0
 20  3  2  0
 24  4  1  1
  5  6  1  0
  5 11  1  0
  5 23  1  1
  6 10  1  0
  6 27  2  0
  7  8  2  0
 27  7  1  0
  9  8  1  0
 10  9  2  0
 11 12  2  0
 11 16  1  0
 12 13  1  0
 13 14  2  0
 15 14  1  0
 16 15  2  0
 15 28  1  0
 29 17  1  0
 17 30  2  0
 17 32  1  0
 18 19  2  0
 30 18  1  0
 19 31  1  0
 21 20  1  0
 20 24  1  0
 22 21  2  0
 22 29  1  0
 24 25  2  0
 24 26  2  0
 31 32  2  0
M  END
$$$$
