
     RDKit          3D

 22 23  0  0  0  0  0  0  0  0999 V2000
    3.2551    3.3535   29.0231 C   0  0  0  0  0  0  0  0  0  0  0  0
    0.2187   -6.4373   27.9275 C   0  0  0  0  0  0  0  0  0  0  0  0
    0.8438   -7.3179   27.0934 C   0  0  0  0  0  0  0  0  0  0  0  0
    1.6629   -6.7843   26.1191 C   0  0  0  0  0  0  0  0  0  0  0  0
    1.8672   -5.4211   25.9613 C   0  0  0  0  0  0  0  0  0  0  0  0
    1.2055   -4.5640   26.8378 C   0  0  0  0  0  0  0  0  0  0  0  0
    0.3839   -5.0524   27.8222 C   0  0  0  0  0  0  0  0  0  0  0  0
    1.4491   -3.1622   26.6594 N   0  0  0  0  0  0  0  0  0  0  0  0
    2.2929   -2.7214   25.5754 C   0  0  0  0  0  0  0  0  0  0  0  0
    3.3490   -3.7087   25.2621 C   0  0  1  0  0  0  0  0  0  0  0  0
    2.7034   -4.9381   24.9630 O   0  0  0  0  0  0  0  0  0  0  0  0
    4.1952   -3.3162   24.1106 C   0  0  0  0  0  0  0  0  0  0  0  0
    3.7059   -2.5161   23.2731 O   0  0  0  0  0  0  0  0  0  0  0  0
    5.5012   -3.7796   23.9009 N   0  0  0  0  0  0  0  0  0  0  0  0
    0.8056   -2.2217   27.5033 C   0  0  0  0  0  0  0  0  0  0  0  0
   -0.0208   -2.5834   28.3576 O   0  0  0  0  0  0  0  0  0  0  0  0
    1.0576   -0.7377   27.4619 C   0  0  0  0  0  0  0  0  0  0  0  0
    1.2811   -0.1636   29.1866 S   0  0  0  0  0  0  0  0  0  0  0  0
    2.5803    1.0688   29.2564 C   0  0  0  0  0  0  0  0  0  0  0  0
    2.1402    2.4246   28.7292 C   0  0  0  0  0  0  0  0  0  0  0  0
    4.3552    3.4104   28.1811 O   0  0  0  0  0  0  0  0  0  0  0  0
    3.2117    4.0785   30.0242 O   0  0  0  0  0  0  0  0  0  0  0  0
 20  1  1  0
  1 21  1  0
  1 22  2  0
  2  3  2  0
  7  2  1  0
  4  3  1  0
  5  4  2  0
  6  5  1  0
  5 11  1  0
  6  7  2  0
  8  6  1  0
  8  9  1  0
 15  8  1  0
  9 10  1  0
 10 11  1  0
 10 12  1  6
 12 13  2  0
 12 14  1  0
 15 16  2  0
 17 15  1  0
 18 17  1  0
 19 18  1  0
 19 20  1  0
M  END
$$$$
