
     RDKit          3D

 22 23  0  0  0  0  0  0  0  0999 V2000
   -3.5585   -2.7422   54.0452 C   0  0  0  0  0  0  0  0  0  0  0  0
   -4.9655  -10.7635   51.7814 C   0  0  0  0  0  0  0  0  0  0  0  0
   -5.2700  -11.8356   50.9660 C   0  0  0  0  0  0  0  0  0  0  0  0
   -6.1470  -11.6305   49.9069 C   0  0  0  0  0  0  0  0  0  0  0  0
   -6.7276  -10.4161   49.6278 C   0  0  0  0  0  0  0  0  0  0  0  0
   -6.3928   -9.3516   50.4789 C   0  0  0  0  0  0  0  0  0  0  0  0
   -5.5309   -9.5115   51.5367 C   0  0  0  0  0  0  0  0  0  0  0  0
   -6.9560   -8.0806   50.2393 N   0  0  0  0  0  0  0  0  0  0  0  0
   -8.2708   -8.1046   49.5698 C   0  0  0  0  0  0  0  0  0  0  0  0
   -8.0618   -8.9259   48.2914 C   0  0  1  0  0  0  0  0  0  0  0  0
   -7.5993  -10.2266   48.5711 O   0  0  0  0  0  0  0  0  0  0  0  0
   -9.3536   -9.0376   47.5793 C   0  0  0  0  0  0  0  0  0  0  0  0
  -10.4133   -8.6870   48.1442 O   0  0  0  0  0  0  0  0  0  0  0  0
   -9.4246   -9.5377   46.2577 N   0  0  0  0  0  0  0  0  0  0  0  0
   -6.3172   -6.8838   50.5869 C   0  0  0  0  0  0  0  0  0  0  0  0
   -6.7663   -5.7296   50.4975 O   0  0  0  0  0  0  0  0  0  0  0  0
   -4.9158   -6.9883   51.1372 C   0  0  0  0  0  0  0  0  0  0  0  0
   -4.1223   -5.3906   51.3130 S   0  0  0  0  0  0  0  0  0  0  0  0
   -4.0238   -4.9656   53.0697 C   0  0  0  0  0  0  0  0  0  0  0  0
   -4.5232   -3.5577   53.2831 C   0  0  0  0  0  0  0  0  0  0  0  0
   -2.9251   -1.6861   53.4166 O   0  0  0  0  0  0  0  0  0  0  0  0
   -3.2756   -2.9549   55.2483 O   0  0  0  0  0  0  0  0  0  0  0  0
 20  1  1  1
  1 21  1  0
  1 22  2  0
  2  3  2  0
  7  2  1  0
  4  3  1  0
  5  4  2  0
  6  5  1  0
  5 11  1  0
  6  7  2  0
  8  6  1  0
  9  8  1  1
 15  8  1  0
  9 10  1  0
 10 11  1  0
 10 12  1  1
 12 13  2  0
 12 14  1  0
 15 16  2  0
 17 15  1  0
 17 18  1  6
 19 18  1  1
 19 20  1  0
M  END
$$$$
