
     RDKit          3D

 22 23  0  0  0  0  0  0  0  0999 V2000
    6.9293    2.1996   24.5410 C   0  0  0  0  0  0  0  0  0  0  0  0
    0.8696   -0.8908   28.1390 C   0  0  0  0  0  0  0  0  0  0  0  0
    0.1845   -1.6896   29.0077 C   0  0  0  0  0  0  0  0  0  0  0  0
   -0.0334   -2.9958   28.6188 C   0  0  0  0  0  0  0  0  0  0  0  0
    0.4071   -3.5116   27.4084 C   0  0  0  0  0  0  0  0  0  0  0  0
    1.1012   -2.6552   26.5567 C   0  0  0  0  0  0  0  0  0  0  0  0
    1.3416   -1.3500   26.9051 C   0  0  0  0  0  0  0  0  0  0  0  0
    1.5568   -3.2216   25.3206 N   0  0  0  0  0  0  0  0  0  0  0  0
    1.2297   -4.5909   25.0049 C   0  0  0  0  0  0  0  0  0  0  0  0
    1.1335   -5.4291   26.2200 C   0  0  1  0  0  0  0  0  0  0  0  0
    0.1604   -4.8352   27.0674 O   0  0  0  0  0  0  0  0  0  0  0  0
    0.7360   -6.8283   25.9366 C   0  0  0  0  0  0  0  0  0  0  0  0
    0.0982   -7.0502   24.8759 O   0  0  0  0  0  0  0  0  0  0  0  0
    1.0279   -7.9133   26.7744 N   0  0  0  0  0  0  0  0  0  0  0  0
    2.2619   -2.4141   24.3925 C   0  0  0  0  0  0  0  0  0  0  0  0
    2.5186   -2.8237   23.2480 O   0  0  0  0  0  0  0  0  0  0  0  0
    2.7459   -1.0181   24.6832 C   0  0  0  0  0  0  0  0  0  0  0  0
    4.2979   -0.7614   23.7454 S   0  0  0  0  0  0  0  0  0  0  0  0
    5.3493    0.4028   24.6120 C   0  0  0  0  0  0  0  0  0  0  0  0
    6.1926    1.2515   23.6747 C   0  0  0  0  0  0  0  0  0  0  0  0
    6.9303    2.0297   25.9170 O   0  0  0  0  0  0  0  0  0  0  0  0
    7.5422    3.1502   24.0407 O   0  0  0  0  0  0  0  0  0  0  0  0
 20  1  1  0
  1 21  1  0
  1 22  2  0
  2  3  2  0
  7  2  1  0
  4  3  1  0
  5  4  2  0
  6  5  1  0
  5 11  1  0
  6  7  2  0
  8  6  1  0
  8  9  1  0
 15  8  1  0
  9 10  1  0
 10 11  1  0
 10 12  1  6
 12 13  2  0
 12 14  1  0
 15 16  2  0
 17 15  1  0
 18 17  1  0
 19 18  1  0
 19 20  1  0
M  END
$$$$
