
     RDKit          3D

 22 23  0  0  0  0  0  0  0  0999 V2000
   -2.3180   -9.2014   26.7863 C   0  0  0  0  0  0  0  0  0  0  0  0
    1.6870   -2.7190   22.1432 C   0  0  0  0  0  0  0  0  0  0  0  0
    2.5286   -1.6352   21.9880 C   0  0  0  0  0  0  0  0  0  0  0  0
    3.0769   -1.0574   23.1274 C   0  0  0  0  0  0  0  0  0  0  0  0
    2.8258   -1.5080   24.4017 C   0  0  0  0  0  0  0  0  0  0  0  0
    1.9661   -2.6114   24.5176 C   0  0  0  0  0  0  0  0  0  0  0  0
    1.4030   -3.2114   23.4175 C   0  0  0  0  0  0  0  0  0  0  0  0
    1.6742   -3.1196   25.8008 N   0  0  0  0  0  0  0  0  0  0  0  0
    1.7520   -2.1271   26.8900 C   0  0  0  0  0  0  0  0  0  0  0  0
    3.1549   -1.5160   26.7846 C   0  0  1  0  0  0  0  0  0  0  0  0
    3.3775   -0.9228   25.5266 O   0  0  0  0  0  0  0  0  0  0  0  0
    3.2991   -0.4703   27.8209 C   0  0  0  0  0  0  0  0  0  0  0  0
    2.3304   -0.1795   28.5573 O   0  0  0  0  0  0  0  0  0  0  0  0
    4.5202    0.2202   28.0047 N   0  0  0  0  0  0  0  0  0  0  0  0
    1.3547   -4.4626   26.0362 C   0  0  0  0  0  0  0  0  0  0  0  0
    1.5547   -5.4331   25.2879 O   0  0  0  0  0  0  0  0  0  0  0  0
    0.6874   -4.7895   27.3498 C   0  0  0  0  0  0  0  0  0  0  0  0
   -0.9148   -5.5643   27.1361 S   0  0  0  0  0  0  0  0  0  0  0  0
   -0.6887   -7.3464   26.9134 C   0  0  0  0  0  0  0  0  0  0  0  0
   -1.8794   -7.9255   26.1895 C   0  0  0  0  0  0  0  0  0  0  0  0
   -3.6346   -9.5965   26.6383 O   0  0  0  0  0  0  0  0  0  0  0  0
   -1.5539   -9.9596   27.4299 O   0  0  0  0  0  0  0  0  0  0  0  0
 20  1  1  1
  1 21  1  0
  1 22  2  0
  2  3  2  0
  7  2  1  0
  4  3  1  0
  5  4  2  0
  6  5  1  0
  5 11  1  0
  6  7  2  0
  8  6  1  0
  9  8  1  1
 15  8  1  0
  9 10  1  0
 10 11  1  0
 10 12  1  1
 12 13  2  0
 12 14  1  0
 15 16  2  0
 17 15  1  0
 17 18  1  6
 19 18  1  1
 19 20  1  0
M  END
$$$$
