
     RDKit          3D

 22 23  0  0  0  0  0  0  0  0999 V2000
  -22.4989   10.8103   34.6158 C   0  0  0  0  0  0  0  0  0  0  0  0
  -18.4276    4.2312   33.9073 C   0  0  0  0  0  0  0  0  0  0  0  0
  -17.6899    3.2191   33.3256 C   0  0  0  0  0  0  0  0  0  0  0  0
  -18.3664    2.2359   32.6126 C   0  0  0  0  0  0  0  0  0  0  0  0
  -19.7321    2.2175   32.4556 C   0  0  0  0  0  0  0  0  0  0  0  0
  -20.4460    3.2631   33.0613 C   0  0  0  0  0  0  0  0  0  0  0  0
  -19.8165    4.2540   33.7747 C   0  0  0  0  0  0  0  0  0  0  0  0
  -21.8503    3.2980   32.9312 N   0  0  0  0  0  0  0  0  0  0  0  0
  -22.4861    1.9789   32.7488 C   0  0  0  0  0  0  0  0  0  0  0  0
  -21.7808    1.3506   31.5403 C   0  0  1  0  0  0  0  0  0  0  0  0
  -20.3921    1.2323   31.7443 O   0  0  0  0  0  0  0  0  0  0  0  0
  -22.3323   -0.0037   31.3168 C   0  0  0  0  0  0  0  0  0  0  0  0
  -23.5110   -0.2630   31.6465 O   0  0  0  0  0  0  0  0  0  0  0  0
  -21.5520   -1.0288   30.7320 N   0  0  0  0  0  0  0  0  0  0  0  0
  -22.5903    4.4868   32.9518 C   0  0  0  0  0  0  0  0  0  0  0  0
  -23.8211    4.6168   32.8526 O   0  0  0  0  0  0  0  0  0  0  0  0
  -21.8181    5.7735   33.1127 C   0  0  0  0  0  0  0  0  0  0  0  0
  -22.8528    7.2263   32.9352 S   0  0  0  0  0  0  0  0  0  0  0  0
  -22.5315    8.3571   34.3116 C   0  0  0  0  0  0  0  0  0  0  0  0
  -23.2537    9.6617   34.0798 C   0  0  0  0  0  0  0  0  0  0  0  0
  -21.4630   11.3422   33.8703 O   0  0  0  0  0  0  0  0  0  0  0  0
  -22.7462   11.3398   35.7254 O   0  0  0  0  0  0  0  0  0  0  0  0
 20  1  1  1
  1 21  1  0
  1 22  2  0
  2  3  2  0
  7  2  1  0
  4  3  1  0
  5  4  2  0
  6  5  1  0
  5 11  1  0
  6  7  2  0
  8  6  1  0
  9  8  1  1
 15  8  1  0
  9 10  1  0
 10 11  1  0
 10 12  1  1
 12 13  2  0
 12 14  1  0
 15 16  2  0
 17 15  1  0
 17 18  1  6
 19 18  1  1
 19 20  1  0
M  END
$$$$
