
     RDKit          3D

 22 23  0  0  0  0  0  0  0  0999 V2000
    3.6965    5.2796   29.6145 C   0  0  0  0  0  0  0  0  0  0  0  0
   -0.0360   -1.8398   29.1819 C   0  0  0  0  0  0  0  0  0  0  0  0
   -0.6708   -3.0306   28.9799 C   0  0  0  0  0  0  0  0  0  0  0  0
   -0.2653   -3.7805   27.8945 C   0  0  0  0  0  0  0  0  0  0  0  0
    0.7375   -3.3771   27.0245 C   0  0  0  0  0  0  0  0  0  0  0  0
    1.3540   -2.1531   27.2739 C   0  0  0  0  0  0  0  0  0  0  0  0
    0.9832   -1.3771   28.3431 C   0  0  0  0  0  0  0  0  0  0  0  0
    2.3967   -1.7713   26.3666 N   0  0  0  0  0  0  0  0  0  0  0  0
    2.7028   -2.6197   25.2406 C   0  0  0  0  0  0  0  0  0  0  0  0
    2.4631   -4.0475   25.5447 C   0  0  1  0  0  0  0  0  0  0  0  0
    1.1065   -4.1721   25.9470 O   0  0  0  0  0  0  0  0  0  0  0  0
    2.7068   -4.9418   24.3884 C   0  0  0  0  0  0  0  0  0  0  0  0
    3.7212   -4.7164   23.6804 O   0  0  0  0  0  0  0  0  0  0  0  0
    1.8802   -6.0185   24.0396 N   0  0  0  0  0  0  0  0  0  0  0  0
    3.0677   -0.5347   26.5437 C   0  0  0  0  0  0  0  0  0  0  0  0
    3.9112   -0.1369   25.7228 O   0  0  0  0  0  0  0  0  0  0  0  0
    2.8269    0.3997   27.6998 C   0  0  0  0  0  0  0  0  0  0  0  0
    3.7284    1.9559   27.3536 S   0  0  0  0  0  0  0  0  0  0  0  0
    3.6529    3.0358   28.7818 C   0  0  0  0  0  0  0  0  0  0  0  0
    3.3495    4.4799   28.4177 C   0  0  0  0  0  0  0  0  0  0  0  0
    2.9305    5.1794   30.7658 O   0  0  0  0  0  0  0  0  0  0  0  0
    4.6682    6.0443   29.5898 O   0  0  0  0  0  0  0  0  0  0  0  0
 20  1  1  0
  1 21  1  0
  1 22  2  0
  2  3  2  0
  7  2  1  0
  4  3  1  0
  5  4  2  0
  6  5  1  0
  5 11  1  0
  6  7  2  0
  8  6  1  0
  8  9  1  0
 15  8  1  0
  9 10  1  0
 10 11  1  0
 10 12  1  6
 12 13  2  0
 12 14  1  0
 15 16  2  0
 17 15  1  0
 18 17  1  0
 19 18  1  0
 19 20  1  0
M  END
$$$$
