
     RDKit          3D

 22 23  0  0  0  0  0  0  0  0999 V2000
  -16.4258   12.2086   35.3183 C   0  0  0  0  0  0  0  0  0  0  0  0
  -21.9753    5.2065   36.4579 C   0  0  0  0  0  0  0  0  0  0  0  0
  -22.8199    4.4911   35.6322 C   0  0  0  0  0  0  0  0  0  0  0  0
  -23.5164    5.1793   34.6452 C   0  0  0  0  0  0  0  0  0  0  0  0
  -23.4087    6.5355   34.4472 C   0  0  0  0  0  0  0  0  0  0  0  0
  -22.5403    7.2267   35.3061 C   0  0  0  0  0  0  0  0  0  0  0  0
  -21.8339    6.5850   36.2943 C   0  0  0  0  0  0  0  0  0  0  0  0
  -22.3871    8.6201   35.1480 N   0  0  0  0  0  0  0  0  0  0  0  0
  -23.5590    9.3084   34.5731 C   0  0  0  0  0  0  0  0  0  0  0  0
  -23.8553    8.5779   33.2574 C   0  0  1  0  0  0  0  0  0  0  0  0
  -24.1085    7.2074   33.4617 O   0  0  0  0  0  0  0  0  0  0  0  0
  -25.0541    9.1818   32.6356 C   0  0  0  0  0  0  0  0  0  0  0  0
  -25.5847   10.1922   33.1482 O   0  0  0  0  0  0  0  0  0  0  0  0
  -25.6255    8.6401   31.4602 N   0  0  0  0  0  0  0  0  0  0  0  0
  -21.2126    9.3032   35.4874 C   0  0  0  0  0  0  0  0  0  0  0  0
  -20.9903   10.5216   35.3989 O   0  0  0  0  0  0  0  0  0  0  0  0
  -20.0698    8.4779   36.0265 C   0  0  0  0  0  0  0  0  0  0  0  0
  -18.4687    9.0909   35.5034 S   0  0  0  0  0  0  0  0  0  0  0  0
  -18.2040   10.7381   36.2056 C   0  0  0  0  0  0  0  0  0  0  0  0
  -17.7950   11.6980   35.1155 C   0  0  0  0  0  0  0  0  0  0  0  0
  -15.3563   11.3455   35.1674 O   0  0  0  0  0  0  0  0  0  0  0  0
  -16.1724   13.3980   35.6243 O   0  0  0  0  0  0  0  0  0  0  0  0
 20  1  1  1
  1 21  1  0
  1 22  2  0
  2  3  2  0
  7  2  1  0
  4  3  1  0
  5  4  2  0
  6  5  1  0
  5 11  1  0
  6  7  2  0
  8  6  1  0
  9  8  1  1
 15  8  1  0
  9 10  1  0
 10 11  1  0
 10 12  1  1
 12 13  2  0
 12 14  1  0
 15 16  2  0
 17 15  1  0
 17 18  1  6
 19 18  1  1
 19 20  1  0
M  END
$$$$
