
     RDKit          3D

 22 23  0  0  0  0  0  0  0  0999 V2000
  -15.4498   12.9324   34.0454 C   0  0  0  0  0  0  0  0  0  0  0  0
  -17.5722    4.7448   33.7226 C   0  0  0  0  0  0  0  0  0  0  0  0
  -18.3965    4.1211   32.8069 C   0  0  0  0  0  0  0  0  0  0  0  0
  -19.7445    4.4608   32.7944 C   0  0  0  0  0  0  0  0  0  0  0  0
  -20.3012    5.3856   33.6458 C   0  0  0  0  0  0  0  0  0  0  0  0
  -19.4308    5.9975   34.5611 C   0  0  0  0  0  0  0  0  0  0  0  0
  -18.0926    5.6903   34.6070 C   0  0  0  0  0  0  0  0  0  0  0  0
  -19.9454    6.9572   35.4580 N   0  0  0  0  0  0  0  0  0  0  0  0
  -21.3704    6.7819   35.7986 C   0  0  0  0  0  0  0  0  0  0  0  0
  -22.1093    6.7503   34.4549 C   0  0  1  0  0  0  0  0  0  0  0  0
  -21.6445    5.7132   33.6229 O   0  0  0  0  0  0  0  0  0  0  0  0
  -23.5501    6.5297   34.7076 C   0  0  0  0  0  0  0  0  0  0  0  0
  -23.9592    6.3318   35.8732 O   0  0  0  0  0  0  0  0  0  0  0  0
  -24.4919    6.5363   33.6518 N   0  0  0  0  0  0  0  0  0  0  0  0
  -19.1784    8.0091   35.9743 C   0  0  0  0  0  0  0  0  0  0  0  0
  -19.2848    8.5518   37.0860 O   0  0  0  0  0  0  0  0  0  0  0  0
  -18.0883    8.5627   35.0896 C   0  0  0  0  0  0  0  0  0  0  0  0
  -18.4199   10.2406   34.5534 S   0  0  0  0  0  0  0  0  0  0  0  0
  -16.9112   10.9483   33.8467 C   0  0  0  0  0  0  0  0  0  0  0  0
  -16.8227   12.4137   34.1957 C   0  0  0  0  0  0  0  0  0  0  0  0
  -14.6284   12.9947   35.1558 O   0  0  0  0  0  0  0  0  0  0  0  0
  -14.9779   13.3260   32.9522 O   0  0  0  0  0  0  0  0  0  0  0  0
 20  1  1  1
  1 21  1  0
  1 22  2  0
  2  3  2  0
  7  2  1  0
  4  3  1  0
  5  4  2  0
  6  5  1  0
  5 11  1  0
  6  7  2  0
  8  6  1  0
  9  8  1  1
 15  8  1  0
  9 10  1  0
 10 11  1  0
 10 12  1  1
 12 13  2  0
 12 14  1  0
 15 16  2  0
 17 15  1  0
 17 18  1  6
 19 18  1  1
 19 20  1  0
M  END
$$$$
