
     RDKit          3D

 22 23  0  0  0  0  0  0  0  0999 V2000
    5.9534    2.0109   25.4583 C   0  0  0  0  0  0  0  0  0  0  0  0
   -0.7059   -5.1223   28.1000 C   0  0  0  0  0  0  0  0  0  0  0  0
   -0.0969   -6.2095   28.6951 C   0  0  0  0  0  0  0  0  0  0  0  0
    1.2248   -6.4874   28.3652 C   0  0  0  0  0  0  0  0  0  0  0  0
    1.9584   -5.7367   27.4775 C   0  0  0  0  0  0  0  0  0  0  0  0
    1.3044   -4.6404   26.8944 C   0  0  0  0  0  0  0  0  0  0  0  0
   -0.0006   -4.3312   27.1925 C   0  0  0  0  0  0  0  0  0  0  0  0
    2.0086   -3.8317   25.9777 N   0  0  0  0  0  0  0  0  0  0  0  0
    3.0849   -4.5248   25.2437 C   0  0  0  0  0  0  0  0  0  0  0  0
    3.9832   -5.1406   26.3237 C   0  0  1  0  0  0  0  0  0  0  0  0
    3.2725   -6.0254   27.1578 O   0  0  0  0  0  0  0  0  0  0  0  0
    5.0702   -5.8980   25.6655 C   0  0  0  0  0  0  0  0  0  0  0  0
    5.7124   -5.3827   24.7237 O   0  0  0  0  0  0  0  0  0  0  0  0
    5.4082   -7.2085   26.0779 N   0  0  0  0  0  0  0  0  0  0  0  0
    1.7300   -2.4727   25.7866 C   0  0  0  0  0  0  0  0  0  0  0  0
    1.0209   -1.7365   26.4915 O   0  0  0  0  0  0  0  0  0  0  0  0
    2.3567   -1.8055   24.5866 C   0  0  0  0  0  0  0  0  0  0  0  0
    2.5979   -0.0452   24.8231 S   0  0  0  0  0  0  0  0  0  0  0  0
    4.3455    0.3546   24.5734 C   0  0  0  0  0  0  0  0  0  0  0  0
    4.8914    1.0451   25.7990 C   0  0  0  0  0  0  0  0  0  0  0  0
    5.7581    3.3514   25.7346 O   0  0  0  0  0  0  0  0  0  0  0  0
    7.0391    1.6810   24.9244 O   0  0  0  0  0  0  0  0  0  0  0  0
 20  1  1  1
  1 21  1  0
  1 22  2  0
  2  3  2  0
  7  2  1  0
  4  3  1  0
  5  4  2  0
  6  5  1  0
  5 11  1  0
  6  7  2  0
  8  6  1  0
  9  8  1  1
 15  8  1  0
  9 10  1  0
 10 11  1  0
 10 12  1  6
 12 13  2  0
 12 14  1  0
 15 16  2  0
 17 15  1  0
 17 18  1  6
 19 18  1  1
 19 20  1  0
M  END
$$$$
