
     RDKit          3D

 22 23  0  0  0  0  0  0  0  0999 V2000
   -1.8237   -9.5373   27.0273 C   0  0  0  0  0  0  0  0  0  0  0  0
    0.5052   -1.4872   29.4877 C   0  0  0  0  0  0  0  0  0  0  0  0
    1.4025   -0.4630   29.5760 C   0  0  0  0  0  0  0  0  0  0  0  0
    2.3719   -0.3932   28.5961 C   0  0  0  0  0  0  0  0  0  0  0  0
    2.4644   -1.3033   27.5529 C   0  0  0  0  0  0  0  0  0  0  0  0
    1.5249   -2.3309   27.5081 C   0  0  0  0  0  0  0  0  0  0  0  0
    0.5430   -2.4360   28.4608 C   0  0  0  0  0  0  0  0  0  0  0  0
    1.6373   -3.2460   26.4099 N   0  0  0  0  0  0  0  0  0  0  0  0
    2.7218   -3.0962   25.4702 C   0  0  0  0  0  0  0  0  0  0  0  0
    3.1177   -1.6804   25.3062 C   0  0  1  0  0  0  0  0  0  0  0  0
    3.4610   -1.1855   26.5926 O   0  0  0  0  0  0  0  0  0  0  0  0
    4.2722   -1.4965   24.3954 C   0  0  0  0  0  0  0  0  0  0  0  0
    5.4173   -1.7564   24.8453 O   0  0  0  0  0  0  0  0  0  0  0  0
    4.1649   -1.0541   23.0699 N   0  0  0  0  0  0  0  0  0  0  0  0
    0.7265   -4.3269   26.2966 C   0  0  0  0  0  0  0  0  0  0  0  0
    0.8202   -5.1534   25.3738 O   0  0  0  0  0  0  0  0  0  0  0  0
   -0.4035   -4.5844   27.2581 C   0  0  0  0  0  0  0  0  0  0  0  0
   -0.4229   -6.3785   27.6252 S   0  0  0  0  0  0  0  0  0  0  0  0
   -1.8177   -7.1536   26.8094 C   0  0  0  0  0  0  0  0  0  0  0  0
   -1.4467   -8.4458   26.1006 C   0  0  0  0  0  0  0  0  0  0  0  0
   -3.0399   -9.4983   27.6918 O   0  0  0  0  0  0  0  0  0  0  0  0
   -1.0525  -10.4855   27.2162 O   0  0  0  0  0  0  0  0  0  0  0  0
 20  1  1  0
  1 21  1  0
  1 22  2  0
  2  3  2  0
  7  2  1  0
  4  3  1  0
  5  4  2  0
  6  5  1  0
  5 11  1  0
  6  7  2  0
  8  6  1  0
  8  9  1  0
 15  8  1  0
  9 10  1  0
 10 11  1  0
 10 12  1  6
 12 13  2  0
 12 14  1  0
 15 16  2  0
 17 15  1  0
 18 17  1  0
 19 18  1  0
 19 20  1  0
M  END
$$$$
