
     RDKit          3D

 22 23  0  0  0  0  0  0  0  0999 V2000
   -2.9736    1.7428   51.0950 C   0  0  0  0  0  0  0  0  0  0  0  0
   -6.6941   -3.4734   47.4729 C   0  0  0  0  0  0  0  0  0  0  0  0
   -7.0004   -4.6145   46.7903 C   0  0  0  0  0  0  0  0  0  0  0  0
   -6.6997   -5.8126   47.4059 C   0  0  0  0  0  0  0  0  0  0  0  0
   -6.1122   -5.8958   48.6601 C   0  0  0  0  0  0  0  0  0  0  0  0
   -5.8185   -4.7020   49.3153 C   0  0  0  0  0  0  0  0  0  0  0  0
   -6.1029   -3.4891   48.7404 C   0  0  0  0  0  0  0  0  0  0  0  0
   -5.2264   -4.8211   50.6158 N   0  0  0  0  0  0  0  0  0  0  0  0
   -4.9180   -6.1304   51.1375 C   0  0  0  0  0  0  0  0  0  0  0  0
   -5.8689   -7.1549   50.6532 C   0  0  1  0  0  0  0  0  0  0  0  0
   -5.8313   -7.1293   49.2335 O   0  0  0  0  0  0  0  0  0  0  0  0
   -5.5434   -8.5234   51.1192 C   0  0  0  0  0  0  0  0  0  0  0  0
   -4.4805   -8.6797   51.7726 O   0  0  0  0  0  0  0  0  0  0  0  0
   -6.3452   -9.6474   50.8781 N   0  0  0  0  0  0  0  0  0  0  0  0
   -4.8866   -3.6536   51.3454 C   0  0  0  0  0  0  0  0  0  0  0  0
   -4.5471   -3.7166   52.5389 O   0  0  0  0  0  0  0  0  0  0  0  0
   -4.8895   -2.2638   50.7658 C   0  0  0  0  0  0  0  0  0  0  0  0
   -3.3160   -1.4585   51.2450 S   0  0  0  0  0  0  0  0  0  0  0  0
   -2.7781   -0.3477   49.9455 C   0  0  0  0  0  0  0  0  0  0  0  0
   -3.5224    0.9774   49.9526 C   0  0  0  0  0  0  0  0  0  0  0  0
   -3.5997    1.6948   52.3311 O   0  0  0  0  0  0  0  0  0  0  0  0
   -1.9573    2.4324   50.9495 O   0  0  0  0  0  0  0  0  0  0  0  0
 20  1  1  0
  1 21  1  0
  1 22  2  0
  2  3  2  0
  7  2  1  0
  4  3  1  0
  5  4  2  0
  6  5  1  0
  5 11  1  0
  6  7  2  0
  8  6  1  0
  8  9  1  0
 15  8  1  0
  9 10  1  0
 10 11  1  0
 10 12  1  1
 12 13  2  0
 12 14  1  0
 15 16  2  0
 17 15  1  0
 18 17  1  0
 19 18  1  0
 19 20  1  0
M  END
$$$$
