
     RDKit          3D

 22 23  0  0  0  0  0  0  0  0999 V2000
   -2.6561    0.4255   50.7070 C   0  0  0  0  0  0  0  0  0  0  0  0
   -6.2253   -4.2675   47.1460 C   0  0  0  0  0  0  0  0  0  0  0  0
   -6.8966   -5.2265   46.4135 C   0  0  0  0  0  0  0  0  0  0  0  0
   -7.1535   -6.4543   47.0129 C   0  0  0  0  0  0  0  0  0  0  0  0
   -6.7745   -6.7648   48.2974 C   0  0  0  0  0  0  0  0  0  0  0  0
   -6.0950   -5.7640   49.0090 C   0  0  0  0  0  0  0  0  0  0  0  0
   -5.8209   -4.5375   48.4539 C   0  0  0  0  0  0  0  0  0  0  0  0
   -5.6841   -6.0248   50.3331 N   0  0  0  0  0  0  0  0  0  0  0  0
   -5.4246   -7.4467   50.6298 C   0  0  0  0  0  0  0  0  0  0  0  0
   -6.7100   -8.1858   50.2373 C   0  0  1  0  0  0  0  0  0  0  0  0
   -7.0358   -7.9910   48.8809 O   0  0  0  0  0  0  0  0  0  0  0  0
   -6.5153   -9.6348   50.4626 C   0  0  0  0  0  0  0  0  0  0  0  0
   -5.6332  -10.0331   51.2554 O   0  0  0  0  0  0  0  0  0  0  0  0
   -7.3105  -10.5966   49.7961 N   0  0  0  0  0  0  0  0  0  0  0  0
   -5.5496   -5.0233   51.3027 C   0  0  0  0  0  0  0  0  0  0  0  0
   -5.2936   -5.1644   52.5095 O   0  0  0  0  0  0  0  0  0  0  0  0
   -5.7341   -3.5966   50.8465 C   0  0  0  0  0  0  0  0  0  0  0  0
   -4.4503   -2.5050   51.4573 S   0  0  0  0  0  0  0  0  0  0  0  0
   -3.5717   -1.7758   50.0528 C   0  0  0  0  0  0  0  0  0  0  0  0
   -3.7710   -0.2800   50.0468 C   0  0  0  0  0  0  0  0  0  0  0  0
   -2.8393    1.7300   51.1268 O   0  0  0  0  0  0  0  0  0  0  0  0
   -1.5350   -0.0978   50.9124 O   0  0  0  0  0  0  0  0  0  0  0  0
 20  1  1  1
  1 21  1  0
  1 22  2  0
  2  3  2  0
  7  2  1  0
  4  3  1  0
  5  4  2  0
  6  5  1  0
  5 11  1  0
  6  7  2  0
  8  6  1  0
  9  8  1  1
 15  8  1  0
  9 10  1  0
 10 11  1  0
 10 12  1  6
 12 13  2  0
 12 14  1  0
 15 16  2  0
 17 15  1  0
 17 18  1  6
 19 18  1  1
 19 20  1  0
M  END
$$$$
