
     RDKit          3D

 22 23  0  0  0  0  0  0  0  0999 V2000
   -2.8449   -9.5096   26.8878 C   0  0  0  0  0  0  0  0  0  0  0  0
    3.9652   -6.0265   27.7718 C   0  0  0  0  0  0  0  0  0  0  0  0
    5.0601   -5.2234   27.9062 C   0  0  0  0  0  0  0  0  0  0  0  0
    5.1978   -4.1945   26.9967 C   0  0  0  0  0  0  0  0  0  0  0  0
    4.2874   -3.9546   25.9775 C   0  0  0  0  0  0  0  0  0  0  0  0
    3.1867   -4.8033   25.8828 C   0  0  0  0  0  0  0  0  0  0  0  0
    3.0101   -5.8369   26.7677 C   0  0  0  0  0  0  0  0  0  0  0  0
    2.2560   -4.5202   24.8293 N   0  0  0  0  0  0  0  0  0  0  0  0
    2.5305   -3.4413   23.9116 C   0  0  0  0  0  0  0  0  0  0  0  0
    3.2817   -2.3439   24.5594 C   0  0  1  0  0  0  0  0  0  0  0  0
    4.4749   -2.9034   25.0892 O   0  0  0  0  0  0  0  0  0  0  0  0
    3.6360   -1.2469   23.6282 C   0  0  0  0  0  0  0  0  0  0  0  0
    2.8765   -1.0472   22.6461 O   0  0  0  0  0  0  0  0  0  0  0  0
    4.7596   -0.4224   23.7763 N   0  0  0  0  0  0  0  0  0  0  0  0
    1.1142   -5.3432   24.6571 C   0  0  0  0  0  0  0  0  0  0  0  0
    0.3216   -5.1560   23.7190 O   0  0  0  0  0  0  0  0  0  0  0  0
    0.7621   -6.4990   25.5558 C   0  0  0  0  0  0  0  0  0  0  0  0
   -1.0107   -6.3458   25.9893 S   0  0  0  0  0  0  0  0  0  0  0  0
   -1.4520   -7.5886   27.2028 C   0  0  0  0  0  0  0  0  0  0  0  0
   -1.4813   -8.9949   26.6274 C   0  0  0  0  0  0  0  0  0  0  0  0
   -3.0967  -10.2768   28.0149 O   0  0  0  0  0  0  0  0  0  0  0  0
   -3.7636   -9.2616   26.0978 O   0  0  0  0  0  0  0  0  0  0  0  0
 20  1  1  0
  1 21  1  0
  1 22  2  0
  2  3  2  0
  7  2  1  0
  4  3  1  0
  5  4  2  0
  6  5  1  0
  5 11  1  0
  6  7  2  0
  8  6  1  0
  8  9  1  0
 15  8  1  0
  9 10  1  0
 10 11  1  0
 10 12  1  6
 12 13  2  0
 12 14  1  0
 15 16  2  0
 17 15  1  0
 18 17  1  0
 19 18  1  0
 19 20  1  0
M  END
$$$$
