
     RDKit          3D

 22 23  0  0  0  0  0  0  0  0999 V2000
    1.0634   -3.1849   19.3823 C   0  0  0  0  0  0  0  0  0  0  0  0
    0.3550   -2.1642   27.7128 C   0  0  0  0  0  0  0  0  0  0  0  0
    0.6978   -1.1859   28.6001 C   0  0  0  0  0  0  0  0  0  0  0  0
    1.8821   -0.5163   28.3677 C   0  0  0  0  0  0  0  0  0  0  0  0
    2.7144   -0.7955   27.2932 C   0  0  0  0  0  0  0  0  0  0  0  0
    2.3198   -1.8036   26.4166 C   0  0  0  0  0  0  0  0  0  0  0  0
    1.1490   -2.4927   26.6092 C   0  0  0  0  0  0  0  0  0  0  0  0
    3.1928   -2.0580   25.3078 N   0  0  0  0  0  0  0  0  0  0  0  0
    4.4280   -1.3212   25.1944 C   0  0  0  0  0  0  0  0  0  0  0  0
    4.3099    0.0429   25.7543 C   0  0  1  0  0  0  0  0  0  0  0  0
    3.8959   -0.0895   27.1066 O   0  0  0  0  0  0  0  0  0  0  0  0
    5.5796    0.8058   25.7117 C   0  0  0  0  0  0  0  0  0  0  0  0
    6.5682    0.2626   25.1560 O   0  0  0  0  0  0  0  0  0  0  0  0
    5.7436    2.0897   26.2492 N   0  0  0  0  0  0  0  0  0  0  0  0
    2.8695   -3.0756   24.3748 C   0  0  0  0  0  0  0  0  0  0  0  0
    3.7475   -3.6148   23.6806 O   0  0  0  0  0  0  0  0  0  0  0  0
    1.4769   -3.6002   24.1448 C   0  0  0  0  0  0  0  0  0  0  0  0
    1.2603   -3.8297   22.3407 S   0  0  0  0  0  0  0  0  0  0  0  0
    0.7891   -2.2769   21.5800 C   0  0  0  0  0  0  0  0  0  0  0  0
    0.0979   -2.4596   20.2389 C   0  0  0  0  0  0  0  0  0  0  0  0
    1.9880   -2.4821   18.6249 O   0  0  0  0  0  0  0  0  0  0  0  0
    1.0453   -4.4206   19.3350 O   0  0  0  0  0  0  0  0  0  0  0  0
 20  1  1  0
  1 21  1  0
  1 22  2  0
  2  3  2  0
  7  2  1  0
  4  3  1  0
  5  4  2  0
  6  5  1  0
  5 11  1  0
  6  7  2  0
  8  6  1  0
  8  9  1  0
 15  8  1  0
  9 10  1  0
 10 11  1  0
 10 12  1  1
 12 13  2  0
 12 14  1  0
 15 16  2  0
 17 15  1  0
 18 17  1  0
 19 18  1  0
 19 20  1  0
M  END
$$$$
