
     RDKit          3D

 22 23  0  0  0  0  0  0  0  0999 V2000
   -3.2823    0.6571   50.1542 C   0  0  0  0  0  0  0  0  0  0  0  0
   -6.5222   -4.1377   47.0462 C   0  0  0  0  0  0  0  0  0  0  0  0
   -6.9456   -5.2182   46.3284 C   0  0  0  0  0  0  0  0  0  0  0  0
   -6.8463   -6.4528   46.9372 C   0  0  0  0  0  0  0  0  0  0  0  0
   -6.3442   -6.6297   48.2185 C   0  0  0  0  0  0  0  0  0  0  0  0
   -5.9246   -5.4951   48.9093 C   0  0  0  0  0  0  0  0  0  0  0  0
   -6.0079   -4.2484   48.3422 C   0  0  0  0  0  0  0  0  0  0  0  0
   -5.4254   -5.7087   50.2364 N   0  0  0  0  0  0  0  0  0  0  0  0
   -5.3289   -7.0535   50.7499 C   0  0  0  0  0  0  0  0  0  0  0  0
   -6.3844   -7.9313   50.1987 C   0  0  1  0  0  0  0  0  0  0  0  0
   -6.2672   -7.8963   48.7836 O   0  0  0  0  0  0  0  0  0  0  0  0
   -6.2760   -9.3366   50.6565 C   0  0  0  0  0  0  0  0  0  0  0  0
   -5.6172   -9.5597   51.7040 O   0  0  0  0  0  0  0  0  0  0  0  0
   -6.8615  -10.4255   49.9965 N   0  0  0  0  0  0  0  0  0  0  0  0
   -4.9678   -4.6073   51.0034 C   0  0  0  0  0  0  0  0  0  0  0  0
   -5.0698   -4.5986   52.2416 O   0  0  0  0  0  0  0  0  0  0  0  0
   -4.3207   -3.3801   50.4179 C   0  0  0  0  0  0  0  0  0  0  0  0
   -2.8379   -3.0003   51.4234 S   0  0  0  0  0  0  0  0  0  0  0  0
   -2.3351   -1.3016   51.1522 C   0  0  0  0  0  0  0  0  0  0  0  0
   -2.8617   -0.7288   49.8466 C   0  0  0  0  0  0  0  0  0  0  0  0
   -2.4125    1.5221   50.8004 O   0  0  0  0  0  0  0  0  0  0  0  0
   -4.4134    1.0468   49.8405 O   0  0  0  0  0  0  0  0  0  0  0  0
 20  1  1  0
  1 21  1  0
  1 22  2  0
  2  3  2  0
  7  2  1  0
  4  3  1  0
  5  4  2  0
  6  5  1  0
  5 11  1  0
  6  7  2  0
  8  6  1  0
  8  9  1  0
 15  8  1  0
  9 10  1  0
 10 11  1  0
 10 12  1  1
 12 13  2  0
 12 14  1  0
 15 16  2  0
 17 15  1  0
 18 17  1  0
 19 18  1  0
 19 20  1  0
M  END
$$$$
