
     RDKit          3D

 22 23  0  0  0  0  0  0  0  0999 V2000
    6.4354    6.3934   28.1432 C   0  0  0  0  0  0  0  0  0  0  0  0
    0.8245   -0.6895   29.4614 C   0  0  0  0  0  0  0  0  0  0  0  0
    1.0612   -2.0103   29.1352 C   0  0  0  0  0  0  0  0  0  0  0  0
    1.6098   -2.2939   27.8896 C   0  0  0  0  0  0  0  0  0  0  0  0
    1.9295   -1.3285   26.9645 C   0  0  0  0  0  0  0  0  0  0  0  0
    1.6745    0.0013   27.3336 C   0  0  0  0  0  0  0  0  0  0  0  0
    1.1331    0.3248   28.5542 C   0  0  0  0  0  0  0  0  0  0  0  0
    1.9853    1.0352   26.4256 N   0  0  0  0  0  0  0  0  0  0  0  0
    1.9397    0.6422   25.0040 C   0  0  0  0  0  0  0  0  0  0  0  0
    2.8733   -0.5691   24.8863 C   0  0  1  0  0  0  0  0  0  0  0  0
    2.4740   -1.6252   25.7285 O   0  0  0  0  0  0  0  0  0  0  0  0
    2.8487   -1.0568   23.4899 C   0  0  0  0  0  0  0  0  0  0  0  0
    2.3328   -0.3570   22.5903 O   0  0  0  0  0  0  0  0  0  0  0  0
    3.4005   -2.3113   23.1387 N   0  0  0  0  0  0  0  0  0  0  0  0
    2.3310    2.3303   26.8312 C   0  0  0  0  0  0  0  0  0  0  0  0
    2.2094    2.8297   27.9615 O   0  0  0  0  0  0  0  0  0  0  0  0
    2.9231    3.2424   25.7848 C   0  0  0  0  0  0  0  0  0  0  0  0
    4.5646    3.8168   26.2187 S   0  0  0  0  0  0  0  0  0  0  0  0
    4.4298    5.3912   27.1015 C   0  0  0  0  0  0  0  0  0  0  0  0
    5.6827    6.2049   26.8884 C   0  0  0  0  0  0  0  0  0  0  0  0
    7.7938    6.1360   28.1585 O   0  0  0  0  0  0  0  0  0  0  0  0
    5.9063    6.7793   29.2126 O   0  0  0  0  0  0  0  0  0  0  0  0
 20  1  1  1
  1 21  1  0
  1 22  2  0
  2  3  2  0
  7  2  1  0
  4  3  1  0
  5  4  2  0
  6  5  1  0
  5 11  1  0
  6  7  2  0
  8  6  1  0
  9  8  1  1
 15  8  1  0
  9 10  1  0
 10 11  1  0
 10 12  1  6
 12 13  2  0
 12 14  1  0
 15 16  2  0
 17 15  1  0
 17 18  1  6
 19 18  1  1
 19 20  1  0
M  END
$$$$
