
     RDKit          3D

 22 23  0  0  0  0  0  0  0  0999 V2000
    5.5607    3.9938   26.9679 C   0  0  0  0  0  0  0  0  0  0  0  0
    1.0771   -0.6619   22.7149 C   0  0  0  0  0  0  0  0  0  0  0  0
    0.3202   -1.6559   22.1664 C   0  0  0  0  0  0  0  0  0  0  0  0
    0.5153   -2.9328   22.6526 C   0  0  0  0  0  0  0  0  0  0  0  0
    1.4295   -3.2336   23.6519 C   0  0  0  0  0  0  0  0  0  0  0  0
    2.1782   -2.1835   24.1787 C   0  0  0  0  0  0  0  0  0  0  0  0
    2.0143   -0.8987   23.7258 C   0  0  0  0  0  0  0  0  0  0  0  0
    3.1030   -2.5237   25.2204 N   0  0  0  0  0  0  0  0  0  0  0  0
    3.2503   -3.9036   25.6151 C   0  0  0  0  0  0  0  0  0  0  0  0
    1.9878   -4.6590   25.4612 C   0  0  1  0  0  0  0  0  0  0  0  0
    1.5851   -4.5375   24.1045 O   0  0  0  0  0  0  0  0  0  0  0  0
    2.1201   -6.0961   25.7978 C   0  0  0  0  0  0  0  0  0  0  0  0
    3.2126   -6.4828   26.2856 O   0  0  0  0  0  0  0  0  0  0  0  0
    1.1059   -7.0445   25.6074 N   0  0  0  0  0  0  0  0  0  0  0  0
    3.9115   -1.5148   25.8028 C   0  0  0  0  0  0  0  0  0  0  0  0
    4.8369   -1.8009   26.5807 O   0  0  0  0  0  0  0  0  0  0  0  0
    3.7462   -0.0416   25.5381 C   0  0  0  0  0  0  0  0  0  0  0  0
    3.9861    0.8387   27.1261 S   0  0  0  0  0  0  0  0  0  0  0  0
    5.6043    1.6082   27.1592 C   0  0  0  0  0  0  0  0  0  0  0  0
    5.7346    2.7570   26.1727 C   0  0  0  0  0  0  0  0  0  0  0  0
    6.6638    4.6330   27.5126 O   0  0  0  0  0  0  0  0  0  0  0  0
    4.4297    4.4585   27.1538 O   0  0  0  0  0  0  0  0  0  0  0  0
 20  1  1  0
  1 21  1  0
  1 22  2  0
  2  3  2  0
  7  2  1  0
  4  3  1  0
  5  4  2  0
  6  5  1  0
  5 11  1  0
  6  7  2  0
  8  6  1  0
  8  9  1  0
 15  8  1  0
  9 10  1  0
 10 11  1  0
 10 12  1  6
 12 13  2  0
 12 14  1  0
 15 16  2  0
 17 15  1  0
 18 17  1  0
 19 18  1  0
 19 20  1  0
M  END
$$$$
