
     RDKit          3D

 22 23  0  0  0  0  0  0  0  0999 V2000
   -3.5031   -0.3985   51.2896 C   0  0  0  0  0  0  0  0  0  0  0  0
   -8.1114   -5.9909   52.4058 C   0  0  0  0  0  0  0  0  0  0  0  0
   -8.9444   -7.0472   52.7179 C   0  0  0  0  0  0  0  0  0  0  0  0
   -8.8620   -8.2018   51.9479 C   0  0  0  0  0  0  0  0  0  0  0  0
   -7.9946   -8.3482   50.8915 C   0  0  0  0  0  0  0  0  0  0  0  0
   -7.1646   -7.2529   50.6064 C   0  0  0  0  0  0  0  0  0  0  0  0
   -7.2144   -6.0937   51.3419 C   0  0  0  0  0  0  0  0  0  0  0  0
   -6.2518   -7.3467   49.5349 N   0  0  0  0  0  0  0  0  0  0  0  0
   -6.6616   -8.2632   48.4535 C   0  0  0  0  0  0  0  0  0  0  0  0
   -6.9310   -9.6082   49.1400 C   0  0  1  0  0  0  0  0  0  0  0  0
   -7.9240   -9.5025   50.1333 O   0  0  0  0  0  0  0  0  0  0  0  0
   -7.3947  -10.5782   48.1239 C   0  0  0  0  0  0  0  0  0  0  0  0
   -7.9794  -10.1758   47.0936 O   0  0  0  0  0  0  0  0  0  0  0  0
   -7.1926  -11.9688   48.2878 N   0  0  0  0  0  0  0  0  0  0  0  0
   -5.0400   -6.6454   49.4999 C   0  0  0  0  0  0  0  0  0  0  0  0
   -4.0874   -6.8142   48.7216 O   0  0  0  0  0  0  0  0  0  0  0  0
   -4.8505   -5.5507   50.5213 C   0  0  0  0  0  0  0  0  0  0  0  0
   -4.7907   -3.9191   49.7815 S   0  0  0  0  0  0  0  0  0  0  0  0
   -4.3618   -2.7047   51.0534 C   0  0  0  0  0  0  0  0  0  0  0  0
   -4.2618   -1.3318   50.4353 C   0  0  0  0  0  0  0  0  0  0  0  0
   -3.9230    0.9149   51.3903 O   0  0  0  0  0  0  0  0  0  0  0  0
   -2.4839   -0.7329   51.9394 O   0  0  0  0  0  0  0  0  0  0  0  0
 20  1  1  1
  1 21  1  0
  1 22  2  0
  2  3  2  0
  7  2  1  0
  4  3  1  0
  5  4  2  0
  6  5  1  0
  5 11  1  0
  6  7  2  0
  8  6  1  0
  9  8  1  1
 15  8  1  0
  9 10  1  0
 10 11  1  0
 10 12  1  6
 12 13  2  0
 12 14  1  0
 15 16  2  0
 17 15  1  0
 17 18  1  6
 19 18  1  1
 19 20  1  0
M  END
$$$$
