
     RDKit          3D

 22 23  0  0  0  0  0  0  0  0999 V2000
   -4.0785   -0.0834   51.6083 C   0  0  0  0  0  0  0  0  0  0  0  0
   -7.0226   -7.2339   46.7240 C   0  0  0  0  0  0  0  0  0  0  0  0
   -7.8676   -8.2107   47.2127 C   0  0  0  0  0  0  0  0  0  0  0  0
   -7.7842   -8.5409   48.5606 C   0  0  0  0  0  0  0  0  0  0  0  0
   -6.9044   -7.9463   49.4337 C   0  0  0  0  0  0  0  0  0  0  0  0
   -6.0629   -6.9585   48.8989 C   0  0  0  0  0  0  0  0  0  0  0  0
   -6.1128   -6.6026   47.5730 C   0  0  0  0  0  0  0  0  0  0  0  0
   -5.1413   -6.3113   49.7486 N   0  0  0  0  0  0  0  0  0  0  0  0
   -4.6942   -7.1166   50.9014 C   0  0  0  0  0  0  0  0  0  0  0  0
   -5.9791   -7.5497   51.6184 C   0  0  1  0  0  0  0  0  0  0  0  0
   -6.8315   -8.2855   50.7723 O   0  0  0  0  0  0  0  0  0  0  0  0
   -5.6180   -8.4062   52.7692 C   0  0  0  0  0  0  0  0  0  0  0  0
   -4.4196   -8.5314   53.1060 O   0  0  0  0  0  0  0  0  0  0  0  0
   -6.6050   -9.0980   53.5101 N   0  0  0  0  0  0  0  0  0  0  0  0
   -4.6951   -5.0011   49.5354 C   0  0  0  0  0  0  0  0  0  0  0  0
   -4.8714   -4.2930   48.5307 O   0  0  0  0  0  0  0  0  0  0  0  0
   -3.9043   -4.3557   50.6469 C   0  0  0  0  0  0  0  0  0  0  0  0
   -4.4388   -2.6797   50.9913 S   0  0  0  0  0  0  0  0  0  0  0  0
   -3.8770   -1.5906   49.6591 C   0  0  0  0  0  0  0  0  0  0  0  0
   -3.7715   -0.1740   50.1682 C   0  0  0  0  0  0  0  0  0  0  0  0
   -3.1255    0.4293   52.4688 O   0  0  0  0  0  0  0  0  0  0  0  0
   -5.1704   -0.4501   52.1043 O   0  0  0  0  0  0  0  0  0  0  0  0
 20  1  1  1
  1 21  1  0
  1 22  2  0
  2  3  2  0
  7  2  1  0
  4  3  1  0
  5  4  2  0
  6  5  1  0
  5 11  1  0
  6  7  2  0
  8  6  1  0
  9  8  1  1
 15  8  1  0
  9 10  1  0
 10 11  1  0
 10 12  1  1
 12 13  2  0
 12 14  1  0
 15 16  2  0
 17 15  1  0
 17 18  1  6
 19 18  1  1
 19 20  1  0
M  END
$$$$
