
     RDKit          3D

 22 23  0  0  0  0  0  0  0  0999 V2000
    4.8787    4.9136   29.0403 C   0  0  0  0  0  0  0  0  0  0  0  0
    3.7354   -1.3684   24.4629 C   0  0  0  0  0  0  0  0  0  0  0  0
    3.6137   -2.6547   24.0242 C   0  0  0  0  0  0  0  0  0  0  0  0
    2.8350   -3.5045   24.7833 C   0  0  0  0  0  0  0  0  0  0  0  0
    2.1894   -3.1082   25.9458 C   0  0  0  0  0  0  0  0  0  0  0  0
    2.3459   -1.7847   26.3514 C   0  0  0  0  0  0  0  0  0  0  0  0
    3.1093   -0.9059   25.6250 C   0  0  0  0  0  0  0  0  0  0  0  0
    1.6540   -1.4016   27.5475 N   0  0  0  0  0  0  0  0  0  0  0  0
    0.9038   -2.3920   28.2809 C   0  0  0  0  0  0  0  0  0  0  0  0
    0.3361   -3.4262   27.3884 C   0  0  1  0  0  0  0  0  0  0  0  0
    1.4169   -4.0057   26.6716 O   0  0  0  0  0  0  0  0  0  0  0  0
   -0.3877   -4.4951   28.1161 C   0  0  0  0  0  0  0  0  0  0  0  0
   -0.7590   -4.2514   29.2925 O   0  0  0  0  0  0  0  0  0  0  0  0
   -0.6827   -5.7537   27.5746 N   0  0  0  0  0  0  0  0  0  0  0  0
    1.7696   -0.0750   28.0348 C   0  0  0  0  0  0  0  0  0  0  0  0
    0.9642    0.3781   28.8652 O   0  0  0  0  0  0  0  0  0  0  0  0
    2.8517    0.8866   27.6200 C   0  0  0  0  0  0  0  0  0  0  0  0
    3.2132    1.9681   29.0531 S   0  0  0  0  0  0  0  0  0  0  0  0
    4.9167    2.5208   28.9864 C   0  0  0  0  0  0  0  0  0  0  0  0
    5.1033    3.7649   28.1336 C   0  0  0  0  0  0  0  0  0  0  0  0
    5.6131    5.0318   30.2104 O   0  0  0  0  0  0  0  0  0  0  0  0
    4.0310    5.7694   28.7600 O   0  0  0  0  0  0  0  0  0  0  0  0
 20  1  1  0
  1 21  1  0
  1 22  2  0
  2  3  2  0
  7  2  1  0
  4  3  1  0
  5  4  2  0
  6  5  1  0
  5 11  1  0
  6  7  2  0
  8  6  1  0
  8  9  1  0
 15  8  1  0
  9 10  1  0
 10 11  1  0
 10 12  1  1
 12 13  2  0
 12 14  1  0
 15 16  2  0
 17 15  1  0
 18 17  1  0
 19 18  1  0
 19 20  1  0
M  END
$$$$
