
     RDKit          3D

 22 23  0  0  0  0  0  0  0  0999 V2000
    3.7264   -0.6974   17.8864 C   0  0  0  0  0  0  0  0  0  0  0  0
    1.1533   -3.8701   24.8058 C   0  0  0  0  0  0  0  0  0  0  0  0
    1.2218   -4.3778   26.0704 C   0  0  0  0  0  0  0  0  0  0  0  0
    1.7659   -3.5642   27.0435 C   0  0  0  0  0  0  0  0  0  0  0  0
    2.2339   -2.2832   26.7882 C   0  0  0  0  0  0  0  0  0  0  0  0
    2.1421   -1.8116   25.4806 C   0  0  0  0  0  0  0  0  0  0  0  0
    1.6058   -2.5865   24.4833 C   0  0  0  0  0  0  0  0  0  0  0  0
    2.6195   -0.4790   25.2518 N   0  0  0  0  0  0  0  0  0  0  0  0
    3.2090    0.2600   26.3417 C   0  0  0  0  0  0  0  0  0  0  0  0
    2.6091   -0.1051   27.6437 C   0  0  1  0  0  0  0  0  0  0  0  0
    2.7723   -1.5067   27.8063 O   0  0  0  0  0  0  0  0  0  0  0  0
    3.2358    0.5895   28.7930 C   0  0  0  0  0  0  0  0  0  0  0  0
    3.6659    1.7561   28.6056 O   0  0  0  0  0  0  0  0  0  0  0  0
    3.3757    0.0279   30.0695 N   0  0  0  0  0  0  0  0  0  0  0  0
    2.5719    0.0726   23.9464 C   0  0  0  0  0  0  0  0  0  0  0  0
    2.4636    1.2975   23.7689 O   0  0  0  0  0  0  0  0  0  0  0  0
    2.6574   -0.7402   22.6816 C   0  0  0  0  0  0  0  0  0  0  0  0
    4.2485   -0.3377   21.8689 S   0  0  0  0  0  0  0  0  0  0  0  0
    4.2643   -0.9915   20.2003 C   0  0  0  0  0  0  0  0  0  0  0  0
    3.4120   -0.1808   19.2379 C   0  0  0  0  0  0  0  0  0  0  0  0
    4.3693    0.1127   16.9629 O   0  0  0  0  0  0  0  0  0  0  0  0
    3.4119   -1.8521   17.5744 O   0  0  0  0  0  0  0  0  0  0  0  0
 20  1  1  0
  1 21  1  0
  1 22  2  0
  2  3  2  0
  7  2  1  0
  4  3  1  0
  5  4  2  0
  6  5  1  0
  5 11  1  0
  6  7  2  0
  8  6  1  0
  8  9  1  0
 15  8  1  0
  9 10  1  0
 10 11  1  0
 10 12  1  1
 12 13  2  0
 12 14  1  0
 15 16  2  0
 17 15  1  0
 18 17  1  0
 19 18  1  0
 19 20  1  0
M  END
$$$$
