
     RDKit          3D

 22 23  0  0  0  0  0  0  0  0999 V2000
   -2.4548   -9.1367   27.1501 C   0  0  0  0  0  0  0  0  0  0  0  0
    1.4763   -0.7345   29.0950 C   0  0  0  0  0  0  0  0  0  0  0  0
    2.0467    0.4065   28.6106 C   0  0  0  0  0  0  0  0  0  0  0  0
    2.6514    0.3278   27.3724 C   0  0  0  0  0  0  0  0  0  0  0  0
    2.6992   -0.8390   26.6232 C   0  0  0  0  0  0  0  0  0  0  0  0
    2.1028   -1.9767   27.1623 C   0  0  0  0  0  0  0  0  0  0  0  0
    1.4888   -1.9418   28.3889 C   0  0  0  0  0  0  0  0  0  0  0  0
    2.1550   -3.1624   26.3576 N   0  0  0  0  0  0  0  0  0  0  0  0
    2.8549   -3.1331   25.0963 C   0  0  0  0  0  0  0  0  0  0  0  0
    2.7865   -1.8001   24.4586 C   0  0  1  0  0  0  0  0  0  0  0  0
    3.3211   -0.8619   25.3814 O   0  0  0  0  0  0  0  0  0  0  0  0
    3.5495   -1.7172   23.1908 C   0  0  0  0  0  0  0  0  0  0  0  0
    4.4984   -2.5258   23.0272 O   0  0  0  0  0  0  0  0  0  0  0  0
    3.2775   -0.7978   22.1685 N   0  0  0  0  0  0  0  0  0  0  0  0
    1.5809   -4.3666   26.8382 C   0  0  0  0  0  0  0  0  0  0  0  0
    1.6951   -4.7037   28.0285 O   0  0  0  0  0  0  0  0  0  0  0  0
    0.7889   -5.3239   25.9874 C   0  0  0  0  0  0  0  0  0  0  0  0
   -0.4523   -6.1299   27.0662 S   0  0  0  0  0  0  0  0  0  0  0  0
   -0.4343   -7.9020   26.7994 C   0  0  0  0  0  0  0  0  0  0  0  0
   -1.2331   -8.6666   27.8421 C   0  0  0  0  0  0  0  0  0  0  0  0
   -2.3774   -9.6277   25.8558 O   0  0  0  0  0  0  0  0  0  0  0  0
   -3.5501   -9.0880   27.7224 O   0  0  0  0  0  0  0  0  0  0  0  0
 20  1  1  0
  1 21  1  0
  1 22  2  0
  2  3  2  0
  7  2  1  0
  4  3  1  0
  5  4  2  0
  6  5  1  0
  5 11  1  0
  6  7  2  0
  8  6  1  0
  8  9  1  0
 15  8  1  0
  9 10  1  0
 10 11  1  0
 10 12  1  6
 12 13  2  0
 12 14  1  0
 15 16  2  0
 17 15  1  0
 18 17  1  0
 19 18  1  0
 19 20  1  0
M  END
$$$$
