
     RDKit          3D

 22 23  0  0  0  0  0  0  0  0999 V2000
   -1.7052    2.8423   50.8599 C   0  0  0  0  0  0  0  0  0  0  0  0
   -5.7328   -1.8971   49.3544 C   0  0  0  0  0  0  0  0  0  0  0  0
   -6.7802   -2.7260   49.0037 C   0  0  0  0  0  0  0  0  0  0  0  0
   -6.6852   -4.0773   49.3165 C   0  0  0  0  0  0  0  0  0  0  0  0
   -5.6031   -4.6328   49.9570 C   0  0  0  0  0  0  0  0  0  0  0  0
   -4.5597   -3.7579   50.2971 C   0  0  0  0  0  0  0  0  0  0  0  0
   -4.6135   -2.4163   50.0060 C   0  0  0  0  0  0  0  0  0  0  0  0
   -3.4245   -4.2711   50.9588 N   0  0  0  0  0  0  0  0  0  0  0  0
   -3.1351   -5.6904   50.6770 C   0  0  0  0  0  0  0  0  0  0  0  0
   -4.4271   -6.4444   51.0161 C   0  0  1  0  0  0  0  0  0  0  0  0
   -5.5215   -5.9793   50.2612 O   0  0  0  0  0  0  0  0  0  0  0  0
   -4.2347   -7.8800   50.7155 C   0  0  0  0  0  0  0  0  0  0  0  0
   -3.1761   -8.2713   50.1757 O   0  0  0  0  0  0  0  0  0  0  0  0
   -5.2298   -8.8367   51.0259 N   0  0  0  0  0  0  0  0  0  0  0  0
   -2.6391   -3.5083   51.8321 C   0  0  0  0  0  0  0  0  0  0  0  0
   -1.6616   -3.8844   52.4991 O   0  0  0  0  0  0  0  0  0  0  0  0
   -3.0088   -2.0543   51.9956 C   0  0  0  0  0  0  0  0  0  0  0  0
   -2.1553   -0.9901   50.8329 S   0  0  0  0  0  0  0  0  0  0  0  0
   -2.8797    0.6673   50.9012 C   0  0  0  0  0  0  0  0  0  0  0  0
   -2.0384    1.6258   50.0947 C   0  0  0  0  0  0  0  0  0  0  0  0
   -2.5465    3.2477   51.8795 O   0  0  0  0  0  0  0  0  0  0  0  0
   -0.6878    3.5403   50.6355 O   0  0  0  0  0  0  0  0  0  0  0  0
 20  1  1  1
  1 21  1  0
  1 22  2  0
  2  3  2  0
  7  2  1  0
  4  3  1  0
  5  4  2  0
  6  5  1  0
  5 11  1  0
  6  7  2  0
  8  6  1  0
  9  8  1  1
 15  8  1  0
  9 10  1  0
 10 11  1  0
 10 12  1  6
 12 13  2  0
 12 14  1  0
 15 16  2  0
 17 15  1  0
 17 18  1  6
 19 18  1  1
 19 20  1  0
M  END
$$$$
