
     RDKit          3D

 22 23  0  0  0  0  0  0  0  0999 V2000
    4.5901    4.8567   30.1083 C   0  0  0  0  0  0  0  0  0  0  0  0
    0.1503   -1.8677   28.7127 C   0  0  0  0  0  0  0  0  0  0  0  0
    0.2673   -3.2206   28.4617 C   0  0  0  0  0  0  0  0  0  0  0  0
    1.1085   -3.6303   27.4334 C   0  0  0  0  0  0  0  0  0  0  0  0
    1.8308   -2.7595   26.6525 C   0  0  0  0  0  0  0  0  0  0  0  0
    1.6853   -1.3933   26.9390 C   0  0  0  0  0  0  0  0  0  0  0  0
    0.8644   -0.9463   27.9459 C   0  0  0  0  0  0  0  0  0  0  0  0
    2.4047   -0.4528   26.1722 N   0  0  0  0  0  0  0  0  0  0  0  0
    2.7206   -0.8891   24.7984 C   0  0  0  0  0  0  0  0  0  0  0  0
    3.4501   -2.2293   24.9545 C   0  0  1  0  0  0  0  0  0  0  0  0
    2.6634   -3.1811   25.6319 O   0  0  0  0  0  0  0  0  0  0  0  0
    3.7640   -2.7612   23.6103 C   0  0  0  0  0  0  0  0  0  0  0  0
    3.7046   -2.0122   22.6099 O   0  0  0  0  0  0  0  0  0  0  0  0
    4.1346   -4.1136   23.4221 N   0  0  0  0  0  0  0  0  0  0  0  0
    2.8096    0.7912   26.6720 C   0  0  0  0  0  0  0  0  0  0  0  0
    3.3545    1.7180   26.0510 O   0  0  0  0  0  0  0  0  0  0  0  0
    2.5632    1.0556   28.1372 C   0  0  0  0  0  0  0  0  0  0  0  0
    3.8388    2.0731   28.8791 S   0  0  0  0  0  0  0  0  0  0  0  0
    3.8689    3.6843   28.0548 C   0  0  0  0  0  0  0  0  0  0  0  0
    3.5629    4.7741   29.0527 C   0  0  0  0  0  0  0  0  0  0  0  0
    5.9030    5.1040   29.7521 O   0  0  0  0  0  0  0  0  0  0  0  0
    4.3374    4.7133   31.3282 O   0  0  0  0  0  0  0  0  0  0  0  0
 20  1  1  1
  1 21  1  0
  1 22  2  0
  2  3  2  0
  7  2  1  0
  4  3  1  0
  5  4  2  0
  6  5  1  0
  5 11  1  0
  6  7  2  0
  8  6  1  0
  9  8  1  1
 15  8  1  0
  9 10  1  0
 10 11  1  0
 10 12  1  6
 12 13  2  0
 12 14  1  0
 15 16  2  0
 17 15  1  0
 17 18  1  6
 19 18  1  1
 19 20  1  0
M  END
$$$$
