
     RDKit          3D

 22 23  0  0  0  0  0  0  0  0999 V2000
   -4.2967    1.6948   50.3132 C   0  0  0  0  0  0  0  0  0  0  0  0
   -2.0040   -8.2697   51.9372 C   0  0  0  0  0  0  0  0  0  0  0  0
   -2.5039   -9.5078   51.6560 C   0  0  0  0  0  0  0  0  0  0  0  0
   -3.7594   -9.5617   51.0854 C   0  0  0  0  0  0  0  0  0  0  0  0
   -4.5114   -8.4322   50.7960 C   0  0  0  0  0  0  0  0  0  0  0  0
   -3.9566   -7.1918   51.1029 C   0  0  0  0  0  0  0  0  0  0  0  0
   -2.7105   -7.0927   51.6687 C   0  0  0  0  0  0  0  0  0  0  0  0
   -4.7512   -6.0433   50.7777 N   0  0  0  0  0  0  0  0  0  0  0  0
   -6.0701   -6.2276   50.2227 C   0  0  0  0  0  0  0  0  0  0  0  0
   -6.1549   -7.4523   49.3975 C   0  0  1  0  0  0  0  0  0  0  0  0
   -5.7707   -8.5443   50.2206 O   0  0  0  0  0  0  0  0  0  0  0  0
   -7.5138   -7.7063   48.8636 C   0  0  0  0  0  0  0  0  0  0  0  0
   -8.1604   -6.7222   48.4223 O   0  0  0  0  0  0  0  0  0  0  0  0
   -8.1176   -8.9703   48.8199 N   0  0  0  0  0  0  0  0  0  0  0  0
   -4.2638   -4.7436   51.0677 C   0  0  0  0  0  0  0  0  0  0  0  0
   -3.4619   -4.5495   51.9965 O   0  0  0  0  0  0  0  0  0  0  0  0
   -4.6449   -3.5067   50.2981 C   0  0  0  0  0  0  0  0  0  0  0  0
   -3.7278   -2.0967   51.0227 S   0  0  0  0  0  0  0  0  0  0  0  0
   -4.6979   -0.5971   50.8754 C   0  0  0  0  0  0  0  0  0  0  0  0
   -4.2058    0.3210   49.7687 C   0  0  0  0  0  0  0  0  0  0  0  0
   -5.5123    2.1873   50.7627 O   0  0  0  0  0  0  0  0  0  0  0  0
   -3.2892    2.4104   50.3642 O   0  0  0  0  0  0  0  0  0  0  0  0
 20  1  1  0
  1 21  1  0
  1 22  2  0
  2  3  2  0
  7  2  1  0
  4  3  1  0
  5  4  2  0
  6  5  1  0
  5 11  1  0
  6  7  2  0
  8  6  1  0
  8  9  1  0
 15  8  1  0
  9 10  1  0
 10 11  1  0
 10 12  1  1
 12 13  2  0
 12 14  1  0
 15 16  2  0
 17 15  1  0
 18 17  1  0
 19 18  1  0
 19 20  1  0
M  END
$$$$
