
     RDKit          3D

 22 23  0  0  0  0  0  0  0  0999 V2000
  -18.4048   11.9909   36.1652 C   0  0  0  0  0  0  0  0  0  0  0  0
  -23.1555    3.1482   35.5941 C   0  0  0  0  0  0  0  0  0  0  0  0
  -24.4232    3.1794   35.0472 C   0  0  0  0  0  0  0  0  0  0  0  0
  -24.8503    4.3543   34.4389 C   0  0  0  0  0  0  0  0  0  0  0  0
  -24.0772    5.4878   34.3527 C   0  0  0  0  0  0  0  0  0  0  0  0
  -22.7954    5.4160   34.9199 C   0  0  0  0  0  0  0  0  0  0  0  0
  -22.3347    4.2748   35.5305 C   0  0  0  0  0  0  0  0  0  0  0  0
  -21.9558    6.5480   34.8588 N   0  0  0  0  0  0  0  0  0  0  0  0
  -22.6656    7.8403   34.8004 C   0  0  0  0  0  0  0  0  0  0  0  0
  -23.6190    7.7274   33.6042 C   0  0  1  0  0  0  0  0  0  0  0  0
  -24.5155    6.6503   33.7454 O   0  0  0  0  0  0  0  0  0  0  0  0
  -24.4075    8.9750   33.5029 C   0  0  0  0  0  0  0  0  0  0  0  0
  -24.0246   10.0086   34.0946 O   0  0  0  0  0  0  0  0  0  0  0  0
  -25.6004    9.0321   32.7443 N   0  0  0  0  0  0  0  0  0  0  0  0
  -20.5581    6.4623   34.8345 C   0  0  0  0  0  0  0  0  0  0  0  0
  -19.8627    5.5026   34.4643 O   0  0  0  0  0  0  0  0  0  0  0  0
  -19.7879    7.6694   35.3110 C   0  0  0  0  0  0  0  0  0  0  0  0
  -19.1610    8.6660   33.9593 S   0  0  0  0  0  0  0  0  0  0  0  0
  -18.2224   10.0593   34.6331 C   0  0  0  0  0  0  0  0  0  0  0  0
  -19.1483   10.9813   35.3877 C   0  0  0  0  0  0  0  0  0  0  0  0
  -17.3002   12.5983   35.5975 O   0  0  0  0  0  0  0  0  0  0  0  0
  -18.7216   12.3347   37.3289 O   0  0  0  0  0  0  0  0  0  0  0  0
 20  1  1  1
  1 21  1  0
  1 22  2  0
  2  3  2  0
  7  2  1  0
  4  3  1  0
  5  4  2  0
  6  5  1  0
  5 11  1  0
  6  7  2  0
  8  6  1  0
  9  8  1  1
 15  8  1  0
  9 10  1  0
 10 11  1  0
 10 12  1  1
 12 13  2  0
 12 14  1  0
 15 16  2  0
 17 15  1  0
 17 18  1  6
 19 18  1  1
 19 20  1  0
M  END
$$$$
