
     RDKit          3D

 22 23  0  0  0  0  0  0  0  0999 V2000
   -8.4418  -10.9264   48.0737 C   0  0  0  0  0  0  0  0  0  0  0  0
   -2.5066   -7.8782   51.7427 C   0  0  0  0  0  0  0  0  0  0  0  0
   -1.5931   -7.0812   52.3691 C   0  0  0  0  0  0  0  0  0  0  0  0
   -1.7260   -5.7187   52.1940 C   0  0  0  0  0  0  0  0  0  0  0  0
   -2.7280   -5.1459   51.4241 C   0  0  0  0  0  0  0  0  0  0  0  0
   -3.6353   -6.0027   50.8050 C   0  0  0  0  0  0  0  0  0  0  0  0
   -3.5410   -7.3634   50.9544 C   0  0  0  0  0  0  0  0  0  0  0  0
   -4.6681   -5.3802   50.0292 N   0  0  0  0  0  0  0  0  0  0  0  0
   -4.6782   -3.9449   49.8837 C   0  0  0  0  0  0  0  0  0  0  0  0
   -4.1287   -3.2657   51.0775 C   0  0  1  0  0  0  0  0  0  0  0  0
   -2.8154   -3.7669   51.2821 O   0  0  0  0  0  0  0  0  0  0  0  0
   -4.0652   -1.7919   50.9360 C   0  0  0  0  0  0  0  0  0  0  0  0
   -4.8008   -1.2571   50.0677 O   0  0  0  0  0  0  0  0  0  0  0  0
   -3.2404   -0.9630   51.7084 N   0  0  0  0  0  0  0  0  0  0  0  0
   -5.6257   -6.1818   49.3575 C   0  0  0  0  0  0  0  0  0  0  0  0
   -6.4853   -5.6738   48.6181 O   0  0  0  0  0  0  0  0  0  0  0  0
   -5.6906   -7.6830   49.4570 C   0  0  0  0  0  0  0  0  0  0  0  0
   -7.4493   -8.1508   49.6626 S   0  0  0  0  0  0  0  0  0  0  0  0
   -8.1655   -8.5487   48.0687 C   0  0  0  0  0  0  0  0  0  0  0  0
   -7.6249   -9.8424   47.4822 C   0  0  0  0  0  0  0  0  0  0  0  0
   -7.8472  -11.8895   48.8744 O   0  0  0  0  0  0  0  0  0  0  0  0
   -9.6573  -10.9799   47.8513 O   0  0  0  0  0  0  0  0  0  0  0  0
 20  1  1  0
  1 21  1  0
  1 22  2  0
  2  3  2  0
  7  2  1  0
  4  3  1  0
  5  4  2  0
  6  5  1  0
  5 11  1  0
  6  7  2  0
  8  6  1  0
  8  9  1  0
 15  8  1  0
  9 10  1  0
 10 11  1  0
 10 12  1  6
 12 13  2  0
 12 14  1  0
 15 16  2  0
 17 15  1  0
 18 17  1  0
 19 18  1  0
 19 20  1  0
M  END
$$$$
