
     RDKit          3D

 22 23  0  0  0  0  0  0  0  0999 V2000
    5.4213    6.9687   31.1807 C   0  0  0  0  0  0  0  0  0  0  0  0
    0.6412   -1.5001   28.7837 C   0  0  0  0  0  0  0  0  0  0  0  0
    0.8956   -2.4802   27.8691 C   0  0  0  0  0  0  0  0  0  0  0  0
    1.7393   -2.1591   26.8251 C   0  0  0  0  0  0  0  0  0  0  0  0
    2.3218   -0.9087   26.6761 C   0  0  0  0  0  0  0  0  0  0  0  0
    2.0298    0.0575   27.6363 C   0  0  0  0  0  0  0  0  0  0  0  0
    1.1979   -0.2202   28.6916 C   0  0  0  0  0  0  0  0  0  0  0  0
    2.6590    1.3343   27.4635 N   0  0  0  0  0  0  0  0  0  0  0  0
    3.4884    1.5652   26.3058 C   0  0  0  0  0  0  0  0  0  0  0  0
    4.1704    0.3302   25.8609 C   0  0  1  0  0  0  0  0  0  0  0  0
    3.1646   -0.6397   25.6054 O   0  0  0  0  0  0  0  0  0  0  0  0
    4.9814    0.5179   24.6348 C   0  0  0  0  0  0  0  0  0  0  0  0
    5.5568    1.6251   24.4799 O   0  0  0  0  0  0  0  0  0  0  0  0
    5.1456   -0.4596   23.6439 N   0  0  0  0  0  0  0  0  0  0  0  0
    2.4058    2.3765   28.3911 C   0  0  0  0  0  0  0  0  0  0  0  0
    1.3634    2.3975   29.0667 O   0  0  0  0  0  0  0  0  0  0  0  0
    3.3481    3.5212   28.6543 C   0  0  0  0  0  0  0  0  0  0  0  0
    4.0436    3.2937   30.3332 S   0  0  0  0  0  0  0  0  0  0  0  0
    4.2433    4.8855   31.1321 C   0  0  0  0  0  0  0  0  0  0  0  0
    5.5791    5.5408   30.8222 C   0  0  0  0  0  0  0  0  0  0  0  0
    4.6952    7.8173   30.3592 O   0  0  0  0  0  0  0  0  0  0  0  0
    5.9415    7.4111   32.2118 O   0  0  0  0  0  0  0  0  0  0  0  0
 20  1  1  0
  1 21  1  0
  1 22  2  0
  2  3  2  0
  7  2  1  0
  4  3  1  0
  5  4  2  0
  6  5  1  0
  5 11  1  0
  6  7  2  0
  8  6  1  0
  8  9  1  0
 15  8  1  0
  9 10  1  0
 10 11  1  0
 10 12  1  6
 12 13  2  0
 12 14  1  0
 15 16  2  0
 17 15  1  0
 18 17  1  0
 19 18  1  0
 19 20  1  0
M  END
$$$$
