
     RDKit          3D

 22 23  0  0  0  0  0  0  0  0999 V2000
    4.9844    5.3702   28.8906 C   0  0  0  0  0  0  0  0  0  0  0  0
    0.5877   -0.7657   28.3573 C   0  0  0  0  0  0  0  0  0  0  0  0
    0.5834   -2.1466   28.3668 C   0  0  0  0  0  0  0  0  0  0  0  0
    1.2718   -2.8153   27.3609 C   0  0  0  0  0  0  0  0  0  0  0  0
    1.9574   -2.1744   26.3564 C   0  0  0  0  0  0  0  0  0  0  0  0
    1.9384   -0.7712   26.3817 C   0  0  0  0  0  0  0  0  0  0  0  0
    1.2701   -0.0719   27.3573 C   0  0  0  0  0  0  0  0  0  0  0  0
    2.6275   -0.0593   25.3775 N   0  0  0  0  0  0  0  0  0  0  0  0
    2.7540   -0.7725   24.0919 C   0  0  0  0  0  0  0  0  0  0  0  0
    3.4042   -2.1186   24.4354 C   0  0  1  0  0  0  0  0  0  0  0  0
    2.6374   -2.8525   25.3613 O   0  0  0  0  0  0  0  0  0  0  0  0
    3.5256   -2.9196   23.1977 C   0  0  0  0  0  0  0  0  0  0  0  0
    4.3290   -2.5738   22.3032 O   0  0  0  0  0  0  0  0  0  0  0  0
    2.7464   -4.0830   22.9946 N   0  0  0  0  0  0  0  0  0  0  0  0
    3.1702    1.2157   25.5804 C   0  0  0  0  0  0  0  0  0  0  0  0
    4.1534    1.7210   25.0151 O   0  0  0  0  0  0  0  0  0  0  0  0
    2.4938    2.0949   26.6037 C   0  0  0  0  0  0  0  0  0  0  0  0
    3.4750    2.3060   28.0889 S   0  0  0  0  0  0  0  0  0  0  0  0
    3.0215    3.8674   28.8844 C   0  0  0  0  0  0  0  0  0  0  0  0
    4.1944    4.3990   29.6710 C   0  0  0  0  0  0  0  0  0  0  0  0
    6.3581    5.2262   28.8294 O   0  0  0  0  0  0  0  0  0  0  0  0
    4.4741    6.3334   28.2704 O   0  0  0  0  0  0  0  0  0  0  0  0
 20  1  1  1
  1 21  1  0
  1 22  2  0
  2  3  2  0
  7  2  1  0
  4  3  1  0
  5  4  2  0
  6  5  1  0
  5 11  1  0
  6  7  2  0
  8  6  1  0
  9  8  1  1
 15  8  1  0
  9 10  1  0
 10 11  1  0
 10 12  1  6
 12 13  2  0
 12 14  1  0
 15 16  2  0
 17 15  1  0
 17 18  1  6
 19 18  1  1
 19 20  1  0
M  END
$$$$
