
     RDKit          3D

 22 23  0  0  0  0  0  0  0  0999 V2000
   -4.2657    3.8431   50.8048 C   0  0  0  0  0  0  0  0  0  0  0  0
   -5.7796   -1.9229   48.3599 C   0  0  0  0  0  0  0  0  0  0  0  0
   -6.3725   -3.1474   48.1232 C   0  0  0  0  0  0  0  0  0  0  0  0
   -5.9570   -4.2384   48.8782 C   0  0  0  0  0  0  0  0  0  0  0  0
   -4.9865   -4.1629   49.8490 C   0  0  0  0  0  0  0  0  0  0  0  0
   -4.4086   -2.9014   50.0599 C   0  0  0  0  0  0  0  0  0  0  0  0
   -4.7899   -1.7981   49.3356 C   0  0  0  0  0  0  0  0  0  0  0  0
   -3.4091   -2.7628   51.0458 N   0  0  0  0  0  0  0  0  0  0  0  0
   -2.6265   -3.9861   51.3073 C   0  0  0  0  0  0  0  0  0  0  0  0
   -3.6613   -5.0680   51.6410 C   0  0  1  0  0  0  0  0  0  0  0  0
   -4.5823   -5.2568   50.5921 O   0  0  0  0  0  0  0  0  0  0  0  0
   -2.9562   -6.3475   51.8732 C   0  0  0  0  0  0  0  0  0  0  0  0
   -1.7573   -6.3469   52.2305 O   0  0  0  0  0  0  0  0  0  0  0  0
   -3.6100   -7.5901   51.6994 N   0  0  0  0  0  0  0  0  0  0  0  0
   -3.1828   -1.5688   51.7418 C   0  0  0  0  0  0  0  0  0  0  0  0
   -2.3756   -1.3689   52.6639 O   0  0  0  0  0  0  0  0  0  0  0  0
   -4.0082   -0.3716   51.3380 C   0  0  0  0  0  0  0  0  0  0  0  0
   -3.0147    0.9499   50.6456 S   0  0  0  0  0  0  0  0  0  0  0  0
   -3.9841    1.8309   49.3964 C   0  0  0  0  0  0  0  0  0  0  0  0
   -4.9573    2.7660   50.0715 C   0  0  0  0  0  0  0  0  0  0  0  0
   -3.9371    3.6494   52.1338 O   0  0  0  0  0  0  0  0  0  0  0  0
   -3.9541    4.9408   50.2845 O   0  0  0  0  0  0  0  0  0  0  0  0
 20  1  1  1
  1 21  1  0
  1 22  2  0
  2  3  2  0
  7  2  1  0
  4  3  1  0
  5  4  2  0
  6  5  1  0
  5 11  1  0
  6  7  2  0
  8  6  1  0
  9  8  1  1
 15  8  1  0
  9 10  1  0
 10 11  1  0
 10 12  1  6
 12 13  2  0
 12 14  1  0
 15 16  2  0
 17 15  1  0
 17 18  1  6
 19 18  1  1
 19 20  1  0
M  END
$$$$
