
     RDKit          3D

 22 23  0  0  0  0  0  0  0  0999 V2000
    5.9159    4.1319   27.8386 C   0  0  0  0  0  0  0  0  0  0  0  0
    0.4128   -1.7667   21.6917 C   0  0  0  0  0  0  0  0  0  0  0  0
    0.0054   -3.0855   21.6488 C   0  0  0  0  0  0  0  0  0  0  0  0
    0.5094   -3.9628   22.6023 C   0  0  0  0  0  0  0  0  0  0  0  0
    1.3925   -3.5870   23.5866 C   0  0  0  0  0  0  0  0  0  0  0  0
    1.7819   -2.2387   23.5970 C   0  0  0  0  0  0  0  0  0  0  0  0
    1.3080   -1.3392   22.6730 C   0  0  0  0  0  0  0  0  0  0  0  0
    2.6842   -1.7945   24.5863 N   0  0  0  0  0  0  0  0  0  0  0  0
    3.6026   -2.8319   25.0942 C   0  0  0  0  0  0  0  0  0  0  0  0
    2.7002   -3.9783   25.5673 C   0  0  1  0  0  0  0  0  0  0  0  0
    1.8866   -4.4709   24.5284 O   0  0  0  0  0  0  0  0  0  0  0  0
    3.5514   -5.0865   26.0529 C   0  0  0  0  0  0  0  0  0  0  0  0
    4.7975   -4.9775   26.0276 O   0  0  0  0  0  0  0  0  0  0  0  0
    2.9868   -6.2838   26.5521 N   0  0  0  0  0  0  0  0  0  0  0  0
    2.7018   -0.4804   25.0699 C   0  0  0  0  0  0  0  0  0  0  0  0
    1.7475    0.3092   25.1577 O   0  0  0  0  0  0  0  0  0  0  0  0
    4.0288    0.0585   25.5454 C   0  0  0  0  0  0  0  0  0  0  0  0
    3.9161    1.7465   26.1379 S   0  0  0  0  0  0  0  0  0  0  0  0
    5.5361    2.5396   25.9860 C   0  0  0  0  0  0  0  0  0  0  0  0
    5.4479    3.9733   26.4485 C   0  0  0  0  0  0  0  0  0  0  0  0
    5.1137    4.7971   28.7472 O   0  0  0  0  0  0  0  0  0  0  0  0
    7.0159    3.6917   28.2496 O   0  0  0  0  0  0  0  0  0  0  0  0
 20  1  1  1
  1 21  1  0
  1 22  2  0
  2  3  2  0
  7  2  1  0
  4  3  1  0
  5  4  2  0
  6  5  1  0
  5 11  1  0
  6  7  2  0
  8  6  1  0
  9  8  1  1
 15  8  1  0
  9 10  1  0
 10 11  1  0
 10 12  1  6
 12 13  2  0
 12 14  1  0
 15 16  2  0
 17 15  1  0
 17 18  1  6
 19 18  1  1
 19 20  1  0
M  END
$$$$
