
     RDKit          3D

 22 23  0  0  0  0  0  0  0  0999 V2000
   -3.7703    3.7878   51.3896 C   0  0  0  0  0  0  0  0  0  0  0  0
   -6.8641   -5.7319   47.5714 C   0  0  0  0  0  0  0  0  0  0  0  0
   -6.6666   -6.9566   48.1398 C   0  0  0  0  0  0  0  0  0  0  0  0
   -5.9421   -6.9928   49.3139 C   0  0  0  0  0  0  0  0  0  0  0  0
   -5.4208   -5.8588   49.9201 C   0  0  0  0  0  0  0  0  0  0  0  0
   -5.6496   -4.6327   49.2997 C   0  0  0  0  0  0  0  0  0  0  0  0
   -6.3667   -4.5513   48.1328 C   0  0  0  0  0  0  0  0  0  0  0  0
   -5.1118   -3.4781   49.9584 N   0  0  0  0  0  0  0  0  0  0  0  0
   -4.3325   -3.6465   51.1609 C   0  0  0  0  0  0  0  0  0  0  0  0
   -4.7806   -4.8151   51.9494 C   0  0  1  0  0  0  0  0  0  0  0  0
   -4.6987   -5.9529   51.1030 O   0  0  0  0  0  0  0  0  0  0  0  0
   -3.9599   -5.0550   53.1597 C   0  0  0  0  0  0  0  0  0  0  0  0
   -3.0618   -4.2177   53.4308 O   0  0  0  0  0  0  0  0  0  0  0  0
   -4.1246   -6.1519   54.0164 N   0  0  0  0  0  0  0  0  0  0  0  0
   -5.2908   -2.1929   49.3868 C   0  0  0  0  0  0  0  0  0  0  0  0
   -5.4028   -2.0448   48.1584 O   0  0  0  0  0  0  0  0  0  0  0  0
   -5.3738   -0.9176   50.1833 C   0  0  0  0  0  0  0  0  0  0  0  0
   -3.9266    0.1120   49.7362 S   0  0  0  0  0  0  0  0  0  0  0  0
   -3.7322    1.4403   50.9234 C   0  0  0  0  0  0  0  0  0  0  0  0
   -3.7035    2.8148   50.2756 C   0  0  0  0  0  0  0  0  0  0  0  0
   -4.7582    4.7605   51.4072 O   0  0  0  0  0  0  0  0  0  0  0  0
   -2.9414    3.7399   52.3063 O   0  0  0  0  0  0  0  0  0  0  0  0
 20  1  1  0
  1 21  1  0
  1 22  2  0
  2  3  2  0
  7  2  1  0
  4  3  1  0
  5  4  2  0
  6  5  1  0
  5 11  1  0
  6  7  2  0
  8  6  1  0
  8  9  1  0
 15  8  1  0
  9 10  1  0
 10 11  1  0
 10 12  1  1
 12 13  2  0
 12 14  1  0
 15 16  2  0
 17 15  1  0
 18 17  1  0
 19 18  1  0
 19 20  1  0
M  END
$$$$
