
     RDKit          3D

 22 23  0  0  0  0  0  0  0  0999 V2000
   -3.8027   -0.2030   51.3634 C   0  0  0  0  0  0  0  0  0  0  0  0
   -6.8061   -6.1932   45.9941 C   0  0  0  0  0  0  0  0  0  0  0  0
   -7.8501   -7.0900   45.8802 C   0  0  0  0  0  0  0  0  0  0  0  0
   -8.1908   -7.8504   46.9930 C   0  0  0  0  0  0  0  0  0  0  0  0
   -7.5431   -7.7570   48.2021 C   0  0  0  0  0  0  0  0  0  0  0  0
   -6.4883   -6.8343   48.2777 C   0  0  0  0  0  0  0  0  0  0  0  0
   -6.1193   -6.0639   47.2018 C   0  0  0  0  0  0  0  0  0  0  0  0
   -5.7888   -6.6929   49.4946 N   0  0  0  0  0  0  0  0  0  0  0  0
   -5.7751   -7.9007   50.3424 C   0  0  0  0  0  0  0  0  0  0  0  0
   -7.2486   -8.2825   50.5309 C   0  0  1  0  0  0  0  0  0  0  0  0
   -7.8921   -8.5207   49.3009 O   0  0  0  0  0  0  0  0  0  0  0  0
   -7.3214   -9.5201   51.3381 C   0  0  0  0  0  0  0  0  0  0  0  0
   -6.2844   -9.9961   51.8510 O   0  0  0  0  0  0  0  0  0  0  0  0
   -8.5496  -10.1901   51.5488 N   0  0  0  0  0  0  0  0  0  0  0  0
   -5.1701   -5.4991   49.8861 C   0  0  0  0  0  0  0  0  0  0  0  0
   -4.4657   -5.3026   50.8896 O   0  0  0  0  0  0  0  0  0  0  0  0
   -5.3717   -4.2973   48.9958 C   0  0  0  0  0  0  0  0  0  0  0  0
   -5.2876   -2.7495   49.8960 S   0  0  0  0  0  0  0  0  0  0  0  0
   -3.6102   -2.5255   50.5383 C   0  0  0  0  0  0  0  0  0  0  0  0
   -3.1829   -1.0893   50.3600 C   0  0  0  0  0  0  0  0  0  0  0  0
   -4.3658    0.9905   50.9512 O   0  0  0  0  0  0  0  0  0  0  0  0
   -3.8489   -0.4739   52.5870 O   0  0  0  0  0  0  0  0  0  0  0  0
 20  1  1  1
  1 21  1  0
  1 22  2  0
  2  3  2  0
  7  2  1  0
  4  3  1  0
  5  4  2  0
  6  5  1  0
  5 11  1  0
  6  7  2  0
  8  6  1  0
  9  8  1  1
 15  8  1  0
  9 10  1  0
 10 11  1  0
 10 12  1  1
 12 13  2  0
 12 14  1  0
 15 16  2  0
 17 15  1  0
 17 18  1  6
 19 18  1  1
 19 20  1  0
M  END
$$$$
