
     RDKit          3D

 22 23  0  0  0  0  0  0  0  0999 V2000
   -2.6495   -0.3241   50.2498 C   0  0  0  0  0  0  0  0  0  0  0  0
   -7.9604   -8.4800   46.4208 C   0  0  0  0  0  0  0  0  0  0  0  0
   -8.2293   -9.7311   46.8945 C   0  0  0  0  0  0  0  0  0  0  0  0
   -7.8790   -9.9941   48.2033 C   0  0  0  0  0  0  0  0  0  0  0  0
   -7.2787   -9.0570   49.0320 C   0  0  0  0  0  0  0  0  0  0  0  0
   -7.0246   -7.7946   48.5005 C   0  0  0  0  0  0  0  0  0  0  0  0
   -7.3588   -7.4903   47.2050 C   0  0  0  0  0  0  0  0  0  0  0  0
   -6.4179   -6.8438   49.3859 N   0  0  0  0  0  0  0  0  0  0  0  0
   -6.0566   -7.2495   50.7224 C   0  0  0  0  0  0  0  0  0  0  0  0
   -6.9724   -8.2839   51.2513 C   0  0  1  0  0  0  0  0  0  0  0  0
   -6.9472   -9.3755   50.3427 O   0  0  0  0  0  0  0  0  0  0  0  0
   -6.5921   -8.7697   52.5987 C   0  0  0  0  0  0  0  0  0  0  0  0
   -6.1432   -7.9274   53.4172 O   0  0  0  0  0  0  0  0  0  0  0  0
   -6.7034  -10.1038   53.0135 N   0  0  0  0  0  0  0  0  0  0  0  0
   -6.1162   -5.5390   48.9198 C   0  0  0  0  0  0  0  0  0  0  0  0
   -5.8729   -5.3242   47.7206 O   0  0  0  0  0  0  0  0  0  0  0  0
   -6.0729   -4.3166   49.7982 C   0  0  0  0  0  0  0  0  0  0  0  0
   -4.4799   -3.4671   49.4903 S   0  0  0  0  0  0  0  0  0  0  0  0
   -4.5082   -1.8322   50.2236 C   0  0  0  0  0  0  0  0  0  0  0  0
   -3.7623   -0.7983   49.3961 C   0  0  0  0  0  0  0  0  0  0  0  0
   -2.8797    0.6313   51.2278 O   0  0  0  0  0  0  0  0  0  0  0  0
   -1.5088   -0.7747   50.0900 O   0  0  0  0  0  0  0  0  0  0  0  0
 20  1  1  0
  1 21  1  0
  1 22  2  0
  2  3  2  0
  7  2  1  0
  4  3  1  0
  5  4  2  0
  6  5  1  0
  5 11  1  0
  6  7  2  0
  8  6  1  0
  8  9  1  0
 15  8  1  0
  9 10  1  0
 10 11  1  0
 10 12  1  1
 12 13  2  0
 12 14  1  0
 15 16  2  0
 17 15  1  0
 18 17  1  0
 19 18  1  0
 19 20  1  0
M  END
$$$$
