
     RDKit          3D

 22 23  0  0  0  0  0  0  0  0999 V2000
    3.6204    3.9632   28.6599 C   0  0  0  0  0  0  0  0  0  0  0  0
   -0.3372   -1.9882   29.6680 C   0  0  0  0  0  0  0  0  0  0  0  0
   -1.0259   -3.1616   29.7709 C   0  0  0  0  0  0  0  0  0  0  0  0
   -0.8449   -4.0850   28.7612 C   0  0  0  0  0  0  0  0  0  0  0  0
   -0.0104   -3.8680   27.6741 C   0  0  0  0  0  0  0  0  0  0  0  0
    0.6699   -2.6538   27.6153 C   0  0  0  0  0  0  0  0  0  0  0  0
    0.5205   -1.7089   28.5989 C   0  0  0  0  0  0  0  0  0  0  0  0
    1.5362   -2.4658   26.4882 N   0  0  0  0  0  0  0  0  0  0  0  0
    1.6097   -3.4874   25.4722 C   0  0  0  0  0  0  0  0  0  0  0  0
    1.3969   -4.8395   26.0332 C   0  0  1  0  0  0  0  0  0  0  0  0
    0.1352   -4.8329   26.6856 O   0  0  0  0  0  0  0  0  0  0  0  0
    1.4026   -5.9077   25.0061 C   0  0  0  0  0  0  0  0  0  0  0  0
    1.5408   -5.5615   23.8052 O   0  0  0  0  0  0  0  0  0  0  0  0
    1.2655   -7.2731   25.2914 N   0  0  0  0  0  0  0  0  0  0  0  0
    2.2569   -1.2528   26.3475 C   0  0  0  0  0  0  0  0  0  0  0  0
    2.9426   -1.0252   25.3367 O   0  0  0  0  0  0  0  0  0  0  0  0
    2.2564   -0.1458   27.3684 C   0  0  0  0  0  0  0  0  0  0  0  0
    2.5593    1.4279   26.4819 S   0  0  0  0  0  0  0  0  0  0  0  0
    4.0539    2.1993   27.1009 C   0  0  0  0  0  0  0  0  0  0  0  0
    3.9808    2.5292   28.5826 C   0  0  0  0  0  0  0  0  0  0  0  0
    2.2912    4.3430   28.7652 O   0  0  0  0  0  0  0  0  0  0  0  0
    4.5038    4.8281   28.6252 O   0  0  0  0  0  0  0  0  0  0  0  0
 20  1  1  0
  1 21  1  0
  1 22  2  0
  2  3  2  0
  7  2  1  0
  4  3  1  0
  5  4  2  0
  6  5  1  0
  5 11  1  0
  6  7  2  0
  8  6  1  0
  8  9  1  0
 15  8  1  0
  9 10  1  0
 10 11  1  0
 10 12  1  6
 12 13  2  0
 12 14  1  0
 15 16  2  0
 17 15  1  0
 18 17  1  0
 19 18  1  0
 19 20  1  0
M  END
$$$$
