
     RDKit          3D

 22 23  0  0  0  0  0  0  0  0999 V2000
    2.4071    4.1876   28.5950 C   0  0  0  0  0  0  0  0  0  0  0  0
   -0.7646   -5.7723   28.0296 C   0  0  0  0  0  0  0  0  0  0  0  0
   -0.3221   -6.8406   27.2746 C   0  0  0  0  0  0  0  0  0  0  0  0
    0.7499   -6.6398   26.4125 C   0  0  0  0  0  0  0  0  0  0  0  0
    1.3936   -5.4333   26.2715 C   0  0  0  0  0  0  0  0  0  0  0  0
    0.9148   -4.3727   27.0560 C   0  0  0  0  0  0  0  0  0  0  0  0
   -0.1420   -4.5284   27.9199 C   0  0  0  0  0  0  0  0  0  0  0  0
    1.5385   -3.1113   26.9557 N   0  0  0  0  0  0  0  0  0  0  0  0
    2.1699   -2.8373   25.6504 C   0  0  0  0  0  0  0  0  0  0  0  0
    3.1294   -4.0092   25.4083 C   0  0  1  0  0  0  0  0  0  0  0  0
    2.4585   -5.2476   25.4090 O   0  0  0  0  0  0  0  0  0  0  0  0
    3.7741   -3.8333   24.0884 C   0  0  0  0  0  0  0  0  0  0  0  0
    3.1372   -3.3171   23.1434 O   0  0  0  0  0  0  0  0  0  0  0  0
    5.1104   -4.2391   23.8622 N   0  0  0  0  0  0  0  0  0  0  0  0
    1.5788   -2.1926   28.0119 C   0  0  0  0  0  0  0  0  0  0  0  0
    0.9704   -2.2511   29.0927 O   0  0  0  0  0  0  0  0  0  0  0  0
    2.4606   -0.9808   27.8345 C   0  0  0  0  0  0  0  0  0  0  0  0
    1.6724    0.5327   28.3831 S   0  0  0  0  0  0  0  0  0  0  0  0
    2.4548    1.9427   27.5607 C   0  0  0  0  0  0  0  0  0  0  0  0
    1.6483    3.1929   27.8132 C   0  0  0  0  0  0  0  0  0  0  0  0
    1.9790    4.5112   29.8692 O   0  0  0  0  0  0  0  0  0  0  0  0
    3.4333    4.7653   28.1639 O   0  0  0  0  0  0  0  0  0  0  0  0
 20  1  1  1
  1 21  1  0
  1 22  2  0
  2  3  2  0
  7  2  1  0
  4  3  1  0
  5  4  2  0
  6  5  1  0
  5 11  1  0
  6  7  2  0
  8  6  1  0
  9  8  1  1
 15  8  1  0
  9 10  1  0
 10 11  1  0
 10 12  1  6
 12 13  2  0
 12 14  1  0
 15 16  2  0
 17 15  1  0
 17 18  1  6
 19 18  1  1
 19 20  1  0
M  END
$$$$
