
     RDKit          3D

 22 23  0  0  0  0  0  0  0  0999 V2000
    3.8597    4.3649   27.8056 C   0  0  0  0  0  0  0  0  0  0  0  0
   -0.0053   -1.5880   29.1085 C   0  0  0  0  0  0  0  0  0  0  0  0
   -0.6602   -2.7225   29.5456 C   0  0  0  0  0  0  0  0  0  0  0  0
   -0.4798   -3.9034   28.8345 C   0  0  0  0  0  0  0  0  0  0  0  0
    0.3166   -4.0020   27.7183 C   0  0  0  0  0  0  0  0  0  0  0  0
    0.9653   -2.8277   27.3062 C   0  0  0  0  0  0  0  0  0  0  0  0
    0.8139   -1.6401   27.9801 C   0  0  0  0  0  0  0  0  0  0  0  0
    1.7984   -2.8692   26.1685 N   0  0  0  0  0  0  0  0  0  0  0  0
    1.4364   -3.8995   25.1760 C   0  0  0  0  0  0  0  0  0  0  0  0
    1.4060   -5.2212   25.9538 C   0  0  1  0  0  0  0  0  0  0  0  0
    0.4862   -5.1835   27.0199 O   0  0  0  0  0  0  0  0  0  0  0  0
    1.0031   -6.3072   25.0337 C   0  0  0  0  0  0  0  0  0  0  0  0
    1.2180   -6.2009   23.8059 O   0  0  0  0  0  0  0  0  0  0  0  0
    0.3718   -7.4799   25.5112 N   0  0  0  0  0  0  0  0  0  0  0  0
    2.8969   -2.0182   25.9942 C   0  0  0  0  0  0  0  0  0  0  0  0
    3.7605   -2.0660   25.1034 O   0  0  0  0  0  0  0  0  0  0  0  0
    3.0687   -0.9047   26.9982 C   0  0  0  0  0  0  0  0  0  0  0  0
    3.5039    0.6557   26.2308 S   0  0  0  0  0  0  0  0  0  0  0  0
    3.2753    1.9924   27.4297 C   0  0  0  0  0  0  0  0  0  0  0  0
    3.6337    3.3138   26.7953 C   0  0  0  0  0  0  0  0  0  0  0  0
    3.2213    5.5831   27.6641 O   0  0  0  0  0  0  0  0  0  0  0  0
    4.6088    4.2149   28.8001 O   0  0  0  0  0  0  0  0  0  0  0  0
 20  1  1  1
  1 21  1  0
  1 22  2  0
  2  3  2  0
  7  2  1  0
  4  3  1  0
  5  4  2  0
  6  5  1  0
  5 11  1  0
  6  7  2  0
  8  6  1  0
  9  8  1  1
 15  8  1  0
  9 10  1  0
 10 11  1  0
 10 12  1  6
 12 13  2  0
 12 14  1  0
 15 16  2  0
 17 15  1  0
 17 18  1  6
 19 18  1  1
 19 20  1  0
M  END
$$$$
