
     RDKit          3D

 34 37  0  0  0  0  0  0  0  0999 V2000
   16.0671  -27.2839  -26.7182 C   0  0  0  0  0  0  0  0  0  0  0  0
   15.1874  -26.7451  -27.8133 C   0  0  0  0  0  0  0  0  0  0  0  0
   15.3101  -27.4058  -29.0127 O   0  0  0  0  0  0  0  0  0  0  0  0
   16.0988  -28.5526  -28.9445 C   0  0  0  0  0  0  0  0  0  0  0  0
   15.5337  -29.3692  -27.7755 C   0  0  0  0  0  0  0  0  0  0  0  0
   16.0125  -28.7122  -26.5750 N   0  0  2  0  0  4  0  0  0  0  0  0
   15.2976  -29.1477  -25.3977 C   0  0  0  0  0  0  0  0  0  0  0  0
   15.2653  -28.0887  -24.3494 C   0  0  0  0  0  0  0  0  0  0  0  0
   16.4458  -27.6885  -23.7613 C   0  0  0  0  0  0  0  0  0  0  0  0
   16.4438  -26.7082  -22.7879 C   0  0  0  0  0  0  0  0  0  0  0  0
   14.1023  -27.4773  -23.9303 C   0  0  0  0  0  0  0  0  0  0  0  0
   14.0887  -26.4978  -22.9599 C   0  0  0  0  0  0  0  0  0  0  0  0
   15.2723  -26.0863  -22.3600 C   0  0  0  0  0  0  0  0  0  0  0  0
   15.2987  -25.0528  -21.3407 C   0  0  0  0  0  0  0  0  0  0  0  0
   15.1312  -23.6904  -21.6137 C   0  0  0  0  0  0  0  0  0  0  0  0
   14.9212  -23.1380  -22.9438 C   0  0  0  0  0  0  0  0  0  0  0  0
   14.8062  -23.8480  -23.9501 O   0  0  0  0  0  0  0  0  0  0  0  0
   14.8444  -21.7246  -23.0954 N   0  0  0  0  0  0  0  0  0  0  0  0
   14.4038  -21.1072  -24.3377 C   0  0  0  0  0  0  0  0  0  0  0  0
   12.8971  -20.9595  -24.3222 C   0  0  0  0  0  0  0  0  0  0  0  0
   15.2117  -23.0852  -20.4223 N   0  0  0  0  0  0  0  0  0  0  0  0
   15.4109  -23.9668  -19.4780 O   0  0  0  0  0  0  0  0  0  0  0  0
   15.4719  -25.1860  -19.9876 C   0  0  0  0  0  0  0  0  0  0  0  0
   15.6809  -26.4445  -19.2868 C   0  0  0  0  0  0  0  0  0  0  0  0
   14.8926  -27.5454  -19.3684 C   0  0  0  0  0  0  0  0  0  0  0  0
   15.1595  -28.7191  -18.6648 C   0  0  0  0  0  0  0  0  0  0  0  0
   14.2694  -29.9107  -18.7788 C   0  0  1  0  0  0  0  0  0  0  0  0
   13.1684  -29.8561  -17.7317 C   0  0  0  0  0  0  0  0  0  0  0  0
   13.7418  -29.9745  -20.1824 C   0  0  0  0  0  0  0  0  0  0  0  0
   16.2814  -28.7454  -17.8521 C   0  0  0  0  0  0  0  0  0  0  0  0
   16.5446  -29.9196  -17.1511 O   0  0  0  0  0  0  0  0  0  0  0  0
   17.1129  -27.6586  -17.7333 C   0  0  0  0  0  0  0  0  0  0  0  0
   16.8003  -26.5346  -18.4480 C   0  0  0  0  0  0  0  0  0  0  0  0
   17.6579  -25.4341  -18.3168 O   0  0  0  0  0  0  0  0  0  0  0  0
  1  2  1  0
  1  6  1  0
  2  3  1  0
  3  4  1  0
  4  5  1  0
  5  6  1  0
  6  7  1  1
  7  8  1  0
  8  9  2  0
  8 11  1  0
  9 10  1  0
 10 13  2  0
 11 12  2  0
 12 13  1  0
 13 14  1  0
 14 15  1  0
 14 23  2  0
 15 16  1  0
 15 21  2  0
 16 17  2  0
 16 18  1  0
 18 19  1  0
 19 20  1  0
 21 22  1  0
 22 23  1  0
 23 24  1  0
 24 25  2  0
 24 33  1  0
 25 26  1  0
 26 27  1  0
 26 30  2  0
 27 28  1  1
 27 29  1  0
 30 31  1  0
 30 32  1  0
 32 33  2  0
 33 34  1  0
M  CHG  1   6   1
M  END
$$$$
