
     RDKit          3D

 34 37  0  0  0  0  0  0  0  0999 V2000
   17.1072  -27.2818  -27.2755 C   0  0  0  0  0  0  0  0  0  0  0  0
   17.5218  -27.1294  -28.7436 C   0  0  0  0  0  0  0  0  0  0  0  0
   16.4456  -26.8133  -29.5459 O   0  0  0  0  0  0  0  0  0  0  0  0
   15.2885  -26.5192  -28.8461 C   0  0  0  0  0  0  0  0  0  0  0  0
   14.8780  -27.5860  -27.8801 C   0  0  0  0  0  0  0  0  0  0  0  0
   16.0317  -28.2247  -27.2471 N   0  0  2  0  0  4  0  0  0  0  0  0
   15.6451  -28.6643  -25.9463 C   0  0  0  0  0  0  0  0  0  0  0  0
   15.5742  -27.5836  -24.9456 C   0  0  0  0  0  0  0  0  0  0  0  0
   16.7314  -27.0679  -24.4005 C   0  0  0  0  0  0  0  0  0  0  0  0
   16.6996  -26.0466  -23.4545 C   0  0  0  0  0  0  0  0  0  0  0  0
   14.3830  -27.0439  -24.5132 C   0  0  0  0  0  0  0  0  0  0  0  0
   14.3473  -26.0191  -23.5644 C   0  0  0  0  0  0  0  0  0  0  0  0
   15.5173  -25.5159  -23.0302 C   0  0  0  0  0  0  0  0  0  0  0  0
   15.4431  -24.4497  -22.0478 C   0  0  0  0  0  0  0  0  0  0  0  0
   15.2455  -23.1137  -22.3188 C   0  0  0  0  0  0  0  0  0  0  0  0
   15.0778  -22.5437  -23.6464 C   0  0  0  0  0  0  0  0  0  0  0  0
   15.2189  -23.1881  -24.6982 O   0  0  0  0  0  0  0  0  0  0  0  0
   14.7279  -21.1541  -23.7893 N   0  0  0  0  0  0  0  0  0  0  0  0
   14.4385  -20.6094  -25.0754 C   0  0  0  0  0  0  0  0  0  0  0  0
   13.2003  -19.7245  -25.0420 C   0  0  0  0  0  0  0  0  0  0  0  0
   15.2489  -22.5174  -21.1178 N   0  0  0  0  0  0  0  0  0  0  0  0
   15.4304  -23.3849  -20.1750 O   0  0  0  0  0  0  0  0  0  0  0  0
   15.5604  -24.6137  -20.6732 C   0  0  0  0  0  0  0  0  0  0  0  0
   15.7773  -25.8466  -19.9245 C   0  0  0  0  0  0  0  0  0  0  0  0
   15.0089  -26.9806  -20.0762 C   0  0  0  0  0  0  0  0  0  0  0  0
   15.2372  -28.1364  -19.3525 C   0  0  0  0  0  0  0  0  0  0  0  0
   14.3695  -29.2869  -19.5833 C   0  0  1  0  0  0  0  0  0  0  0  0
   13.0623  -29.2202  -18.8347 C   0  0  0  0  0  0  0  0  0  0  0  0
   14.0243  -29.3501  -21.0591 C   0  0  0  0  0  0  0  0  0  0  0  0
   16.2819  -28.1120  -18.4563 C   0  0  0  0  0  0  0  0  0  0  0  0
   16.5239  -29.2573  -17.7256 O   0  0  0  0  0  0  0  0  0  0  0  0
   17.0647  -26.9881  -18.2874 C   0  0  0  0  0  0  0  0  0  0  0  0
   16.8155  -25.8595  -19.0170 C   0  0  0  0  0  0  0  0  0  0  0  0
   17.6245  -24.7354  -18.8252 O   0  0  0  0  0  0  0  0  0  0  0  0
  1  2  1  1
  1  6  1  0
  2  3  1  6
  4  3  1  1
  5  4  1  1
  5  6  1  0
  6  7  1  1
  7  8  1  6
  8  9  2  0
  8 11  1  0
  9 10  1  0
 10 13  2  0
 11 12  2  0
 12 13  1  0
 13 14  1  0
 14 15  1  0
 14 23  2  0
 15 16  1  0
 15 21  2  0
 16 17  2  0
 16 18  1  0
 19 18  1  1
 20 19  1  6
 21 22  1  0
 22 23  1  0
 23 24  1  0
 24 25  2  0
 24 33  1  0
 25 26  1  0
 27 26  1  6
 26 30  2  0
 28 27  1  6
 29 27  1  6
 30 31  1  0
 30 32  1  0
 32 33  2  0
 33 34  1  0
M  CHG  1   6   1
M  END
$$$$
