
     RDKit          3D

 34 37  0  0  0  0  0  0  0  0999 V2000
   14.1908  -30.1261  -24.8222 C   0  0  0  0  0  0  0  0  0  0  0  0
   13.6301  -31.5526  -24.8530 C   0  0  0  0  0  0  0  0  0  0  0  0
   14.5346  -32.4656  -24.3529 O   0  0  0  0  0  0  0  0  0  0  0  0
   15.6494  -31.8913  -23.7674 C   0  0  0  0  0  0  0  0  0  0  0  0
   16.3716  -30.9286  -24.6569 C   0  0  0  0  0  0  0  0  0  0  0  0
   15.4510  -30.1642  -25.4983 N   0  0  2  0  0  4  0  0  0  0  0  0
   16.0357  -28.8903  -25.7630 C   0  0  0  0  0  0  0  0  0  0  0  0
   15.8266  -27.9009  -24.6899 C   0  0  0  0  0  0  0  0  0  0  0  0
   16.8694  -27.5514  -23.8577 C   0  0  0  0  0  0  0  0  0  0  0  0
   16.7059  -26.6198  -22.8357 C   0  0  0  0  0  0  0  0  0  0  0  0
   14.6137  -27.2875  -24.4663 C   0  0  0  0  0  0  0  0  0  0  0  0
   14.4460  -26.3524  -23.4421 C   0  0  0  0  0  0  0  0  0  0  0  0
   15.5028  -26.0156  -22.6191 C   0  0  0  0  0  0  0  0  0  0  0  0
   15.2934  -25.0386  -21.5660 C   0  0  0  0  0  0  0  0  0  0  0  0
   14.9961  -23.7060  -21.7477 C   0  0  0  0  0  0  0  0  0  0  0  0
   14.8420  -23.0498  -23.0366 C   0  0  0  0  0  0  0  0  0  0  0  0
   15.4274  -23.4107  -24.0703 O   0  0  0  0  0  0  0  0  0  0  0  0
   13.9682  -21.9118  -23.1600 N   0  0  0  0  0  0  0  0  0  0  0  0
   13.9648  -21.1281  -24.3519 C   0  0  0  0  0  0  0  0  0  0  0  0
   14.8343  -19.8869  -24.2072 C   0  0  0  0  0  0  0  0  0  0  0  0
   14.8936  -23.2066  -20.5074 N   0  0  0  0  0  0  0  0  0  0  0  0
   15.1043  -24.1273  -19.6230 O   0  0  0  0  0  0  0  0  0  0  0  0
   15.3606  -25.2990  -20.2030 C   0  0  0  0  0  0  0  0  0  0  0  0
   15.6465  -26.5649  -19.5369 C   0  0  0  0  0  0  0  0  0  0  0  0
   14.8580  -27.6889  -19.6565 C   0  0  0  0  0  0  0  0  0  0  0  0
   15.1531  -28.8766  -19.0130 C   0  0  0  0  0  0  0  0  0  0  0  0
   14.2575  -30.0134  -19.2014 C   0  0  1  0  0  0  0  0  0  0  0  0
   12.9153  -29.8444  -18.5354 C   0  0  0  0  0  0  0  0  0  0  0  0
   13.9900  -30.1840  -20.6847 C   0  0  0  0  0  0  0  0  0  0  0  0
   16.2868  -28.8952  -18.2323 C   0  0  0  0  0  0  0  0  0  0  0  0
   16.5964  -30.0727  -17.5829 O   0  0  0  0  0  0  0  0  0  0  0  0
   17.0914  -27.7820  -18.0976 C   0  0  0  0  0  0  0  0  0  0  0  0
   16.7747  -26.6212  -18.7459 C   0  0  0  0  0  0  0  0  0  0  0  0
   17.6077  -25.5089  -18.5912 O   0  0  0  0  0  0  0  0  0  0  0  0
  1  2  1  1
  1  6  1  0
  2  3  1  6
  4  3  1  1
  5  4  1  1
  5  6  1  0
  6  7  1  1
  7  8  1  6
  8  9  2  0
  8 11  1  0
  9 10  1  0
 10 13  2  0
 11 12  2  0
 12 13  1  0
 13 14  1  0
 14 15  1  0
 14 23  2  0
 15 16  1  0
 15 21  2  0
 16 17  2  0
 16 18  1  0
 19 18  1  1
 20 19  1  6
 21 22  1  0
 22 23  1  0
 23 24  1  0
 24 25  2  0
 24 33  1  0
 25 26  1  0
 27 26  1  6
 26 30  2  0
 28 27  1  6
 29 27  1  6
 30 31  1  0
 30 32  1  0
 32 33  2  0
 33 34  1  0
M  CHG  1   6   1
M  END
$$$$
