
     RDKit          3D

 34 37  0  0  0  0  0  0  0  0999 V2000
   16.9635  -28.4871  -26.5004 C   0  0  0  0  0  0  0  0  0  0  0  0
   17.4893  -28.4608  -27.9402 C   0  0  0  0  0  0  0  0  0  0  0  0
   16.5338  -28.0024  -28.8225 O   0  0  0  0  0  0  0  0  0  0  0  0
   15.4002  -27.4953  -28.2117 C   0  0  0  0  0  0  0  0  0  0  0  0
   14.7574  -28.4426  -27.2477 C   0  0  0  0  0  0  0  0  0  0  0  0
   15.7461  -29.2382  -26.5203 N   0  0  2  0  0  4  0  0  0  0  0  0
   15.2104  -29.5586  -25.2376 C   0  0  0  0  0  0  0  0  0  0  0  0
   15.2505  -28.4415  -24.2760 C   0  0  0  0  0  0  0  0  0  0  0  0
   14.1126  -27.7043  -24.0233 C   0  0  0  0  0  0  0  0  0  0  0  0
   14.1161  -26.6443  -23.1204 C   0  0  0  0  0  0  0  0  0  0  0  0
   16.3933  -28.0833  -23.5955 C   0  0  0  0  0  0  0  0  0  0  0  0
   16.4005  -27.0204  -22.6889 C   0  0  0  0  0  0  0  0  0  0  0  0
   15.2504  -26.2942  -22.4494 C   0  0  0  0  0  0  0  0  0  0  0  0
   15.2935  -25.1973  -21.4994 C   0  0  0  0  0  0  0  0  0  0  0  0
   15.1061  -23.8650  -21.7946 C   0  0  0  0  0  0  0  0  0  0  0  0
   14.8323  -23.3306  -23.1194 C   0  0  0  0  0  0  0  0  0  0  0  0
   15.1354  -23.9101  -24.1747 O   0  0  0  0  0  0  0  0  0  0  0  0
   14.1728  -22.0576  -23.2548 N   0  0  0  0  0  0  0  0  0  0  0  0
   13.9566  -21.4885  -24.5448 C   0  0  0  0  0  0  0  0  0  0  0  0
   15.0206  -20.4542  -24.8849 C   0  0  0  0  0  0  0  0  0  0  0  0
   15.2345  -23.2332  -20.6188 N   0  0  0  0  0  0  0  0  0  0  0  0
   15.4793  -24.0769  -19.6687 O   0  0  0  0  0  0  0  0  0  0  0  0
   15.5318  -25.3233  -20.1365 C   0  0  0  0  0  0  0  0  0  0  0  0
   15.7848  -26.5388  -19.3709 C   0  0  0  0  0  0  0  0  0  0  0  0
   14.9817  -27.6577  -19.4220 C   0  0  0  0  0  0  0  0  0  0  0  0
   15.2456  -28.7972  -18.6846 C   0  0  0  0  0  0  0  0  0  0  0  0
   14.3366  -29.9326  -18.8056 C   0  0  1  0  0  0  0  0  0  0  0  0
   13.0741  -29.7874  -17.9940 C   0  0  0  0  0  0  0  0  0  0  0  0
   13.9104  -30.0648  -20.2554 C   0  0  0  0  0  0  0  0  0  0  0  0
   16.3630  -28.7722  -17.8810 C   0  0  0  0  0  0  0  0  0  0  0  0
   16.6414  -29.9013  -17.1381 O   0  0  0  0  0  0  0  0  0  0  0  0
   17.1816  -27.6632  -17.8136 C   0  0  0  0  0  0  0  0  0  0  0  0
   16.8958  -26.5506  -18.5542 C   0  0  0  0  0  0  0  0  0  0  0  0
   17.7425  -25.4413  -18.4663 O   0  0  0  0  0  0  0  0  0  0  0  0
  1  2  1  1
  1  6  1  0
  2  3  1  6
  4  3  1  1
  5  4  1  1
  5  6  1  0
  6  7  1  1
  7  8  1  6
  8  9  2  0
  8 11  1  0
  9 10  1  0
 10 13  2  0
 11 12  2  0
 12 13  1  0
 13 14  1  0
 14 15  1  0
 14 23  2  0
 15 16  1  0
 15 21  2  0
 16 17  2  0
 16 18  1  0
 19 18  1  1
 20 19  1  6
 21 22  1  0
 22 23  1  0
 23 24  1  0
 24 25  2  0
 24 33  1  0
 25 26  1  0
 27 26  1  6
 26 30  2  0
 28 27  1  6
 29 27  1  6
 30 31  1  0
 30 32  1  0
 32 33  2  0
 33 34  1  0
M  CHG  1   6   1
M  END
$$$$
