
     RDKit          3D

 34 37  0  0  0  0  0  0  0  0999 V2000
   13.9938  -30.2127  -25.5323 C   0  0  0  0  0  0  0  0  0  0  0  0
   12.7352  -30.1825  -26.4071 C   0  0  0  0  0  0  0  0  0  0  0  0
   12.9936  -30.6300  -27.6857 O   0  0  0  0  0  0  0  0  0  0  0  0
   14.2542  -31.1777  -27.8468 C   0  0  0  0  0  0  0  0  0  0  0  0
   15.3661  -30.2744  -27.4139 C   0  0  0  0  0  0  0  0  0  0  0  0
   15.0030  -29.4843  -26.2376 N   0  0  2  0  0  4  0  0  0  0  0  0
   16.1894  -29.2158  -25.4923 C   0  0  0  0  0  0  0  0  0  0  0  0
   16.0346  -28.1516  -24.4834 C   0  0  0  0  0  0  0  0  0  0  0  0
   17.0662  -27.8672  -23.6133 C   0  0  0  0  0  0  0  0  0  0  0  0
   16.9531  -26.8681  -22.6501 C   0  0  0  0  0  0  0  0  0  0  0  0
   14.8850  -27.4033  -24.3584 C   0  0  0  0  0  0  0  0  0  0  0  0
   14.7679  -26.4001  -23.3932 C   0  0  0  0  0  0  0  0  0  0  0  0
   15.8125  -26.1303  -22.5310 C   0  0  0  0  0  0  0  0  0  0  0  0
   15.6571  -25.0795  -21.5414 C   0  0  0  0  0  0  0  0  0  0  0  0
   15.4344  -23.7463  -21.8067 C   0  0  0  0  0  0  0  0  0  0  0  0
   15.3178  -23.1642  -23.1346 C   0  0  0  0  0  0  0  0  0  0  0  0
   15.6140  -23.7637  -24.1806 O   0  0  0  0  0  0  0  0  0  0  0  0
   14.8346  -21.8159  -23.2845 N   0  0  0  0  0  0  0  0  0  0  0  0
   14.5631  -21.2846  -24.5802 C   0  0  0  0  0  0  0  0  0  0  0  0
   13.2206  -21.7667  -25.1119 C   0  0  0  0  0  0  0  0  0  0  0  0
   15.3591  -23.1658  -20.6003 N   0  0  0  0  0  0  0  0  0  0  0  0
   15.5178  -24.0400  -19.6596 O   0  0  0  0  0  0  0  0  0  0  0  0
   15.7090  -25.2579  -20.1646 C   0  0  0  0  0  0  0  0  0  0  0  0
   15.9237  -26.4938  -19.4200 C   0  0  0  0  0  0  0  0  0  0  0  0
   15.1039  -27.5976  -19.5145 C   0  0  0  0  0  0  0  0  0  0  0  0
   15.3314  -28.7570  -18.7962 C   0  0  0  0  0  0  0  0  0  0  0  0
   14.4070  -29.8739  -18.9634 C   0  0  1  0  0  0  0  0  0  0  0  0
   13.1635  -29.7635  -18.1179 C   0  0  0  0  0  0  0  0  0  0  0  0
   13.9492  -29.9169  -20.4090 C   0  0  0  0  0  0  0  0  0  0  0  0
   16.4294  -28.7681  -17.9661 C   0  0  0  0  0  0  0  0  0  0  0  0
   16.6714  -29.9174  -17.2418 O   0  0  0  0  0  0  0  0  0  0  0  0
   17.2642  -27.6748  -17.8552 C   0  0  0  0  0  0  0  0  0  0  0  0
   17.0145  -26.5418  -18.5778 C   0  0  0  0  0  0  0  0  0  0  0  0
   17.8769  -25.4492  -18.4457 O   0  0  0  0  0  0  0  0  0  0  0  0
  1  2  1  1
  1  6  1  0
  2  3  1  6
  4  3  1  1
  5  4  1  1
  5  6  1  0
  6  7  1  1
  7  8  1  6
  8  9  2  0
  8 11  1  0
  9 10  1  0
 10 13  2  0
 11 12  2  0
 12 13  1  0
 13 14  1  0
 14 15  1  0
 14 23  2  0
 15 16  1  0
 15 21  2  0
 16 17  2  0
 16 18  1  0
 19 18  1  1
 20 19  1  6
 21 22  1  0
 22 23  1  0
 23 24  1  0
 24 25  2  0
 24 33  1  0
 25 26  1  0
 27 26  1  6
 26 30  2  0
 28 27  1  6
 29 27  1  6
 30 31  1  0
 30 32  1  0
 32 33  2  0
 33 34  1  0
M  CHG  1   6   1
M  END
$$$$
