
     RDKit          3D

 34 37  0  0  0  0  0  0  0  0999 V2000
   14.9949  -30.5492  -24.0138 C   0  0  0  0  0  0  0  0  0  0  0  0
   14.6357  -32.0310  -23.8542 C   0  0  0  0  0  0  0  0  0  0  0  0
   15.7562  -32.8336  -23.8985 O   0  0  0  0  0  0  0  0  0  0  0  0
   16.9506  -32.1348  -23.8840 C   0  0  0  0  0  0  0  0  0  0  0  0
   17.0555  -31.0940  -24.9542 C   0  0  0  0  0  0  0  0  0  0  0  0
   15.7721  -30.4405  -25.2099 N   0  0  2  0  0  4  0  0  0  0  0  0
   16.0258  -29.1071  -25.6490 C   0  0  0  0  0  0  0  0  0  0  0  0
   15.8256  -28.0849  -24.6054 C   0  0  0  0  0  0  0  0  0  0  0  0
   14.5940  -27.4832  -24.4528 C   0  0  0  0  0  0  0  0  0  0  0  0
   14.3711  -26.5155  -23.4766 C   0  0  0  0  0  0  0  0  0  0  0  0
   16.8281  -27.6865  -23.7489 C   0  0  0  0  0  0  0  0  0  0  0  0
   16.6081  -26.7160  -22.7684 C   0  0  0  0  0  0  0  0  0  0  0  0
   15.3674  -26.1251  -22.6313 C   0  0  0  0  0  0  0  0  0  0  0  0
   15.1738  -25.1216  -21.6004 C   0  0  0  0  0  0  0  0  0  0  0  0
   14.8865  -23.7911  -21.8118 C   0  0  0  0  0  0  0  0  0  0  0  0
   14.7289  -23.1645  -23.1149 C   0  0  0  0  0  0  0  0  0  0  0  0
   15.4744  -23.3854  -24.0828 O   0  0  0  0  0  0  0  0  0  0  0  0
   13.6571  -22.2278  -23.3332 N   0  0  0  0  0  0  0  0  0  0  0  0
   13.9396  -20.8598  -23.6223 C   0  0  0  0  0  0  0  0  0  0  0  0
   14.6407  -20.1755  -22.4571 C   0  0  0  0  0  0  0  0  0  0  0  0
   14.7972  -23.2615  -20.5831 N   0  0  0  0  0  0  0  0  0  0  0  0
   15.0063  -24.1627  -19.6785 O   0  0  0  0  0  0  0  0  0  0  0  0
   15.2486  -25.3501  -20.2321 C   0  0  0  0  0  0  0  0  0  0  0  0
   15.5284  -26.6021  -19.5380 C   0  0  0  0  0  0  0  0  0  0  0  0
   14.6750  -27.6843  -19.5356 C   0  0  0  0  0  0  0  0  0  0  0  0
   14.9660  -28.8598  -18.8683 C   0  0  0  0  0  0  0  0  0  0  0  0
   13.9990  -29.9515  -18.9243 C   0  0  1  0  0  0  0  0  0  0  0  0
   12.8599  -29.8029  -17.9477 C   0  0  0  0  0  0  0  0  0  0  0  0
   13.3835  -29.9884  -20.3102 C   0  0  0  0  0  0  0  0  0  0  0  0
   16.1642  -28.9103  -18.1925 C   0  0  0  0  0  0  0  0  0  0  0  0
   16.4707  -30.0762  -17.5210 O   0  0  0  0  0  0  0  0  0  0  0  0
   17.0344  -27.8392  -18.1807 C   0  0  0  0  0  0  0  0  0  0  0  0
   16.7201  -26.6895  -18.8496 C   0  0  0  0  0  0  0  0  0  0  0  0
   17.6204  -25.6201  -18.8205 O   0  0  0  0  0  0  0  0  0  0  0  0
  1  2  1  1
  1  6  1  0
  2  3  1  6
  4  3  1  1
  5  4  1  1
  5  6  1  0
  6  7  1  1
  7  8  1  6
  8  9  2  0
  8 11  1  0
  9 10  1  0
 10 13  2  0
 11 12  2  0
 12 13  1  0
 13 14  1  0
 14 15  1  0
 14 23  2  0
 15 16  1  0
 15 21  2  0
 16 17  2  0
 16 18  1  0
 19 18  1  1
 20 19  1  6
 21 22  1  0
 22 23  1  0
 23 24  1  0
 24 25  2  0
 24 33  1  0
 25 26  1  0
 27 26  1  6
 26 30  2  0
 28 27  1  6
 29 27  1  6
 30 31  1  0
 30 32  1  0
 32 33  2  0
 33 34  1  0
M  CHG  1   6   1
M  END
$$$$
