
     RDKit          3D

 34 37  0  0  0  0  0  0  0  0999 V2000
   16.2180  -31.1125  -26.0782 C   0  0  0  0  0  0  0  0  0  0  0  0
   15.2833  -32.0533  -26.7884 C   0  0  0  0  0  0  0  0  0  0  0  0
   14.3431  -32.6377  -25.9730 O   0  0  0  0  0  0  0  0  0  0  0  0
   14.3247  -32.1235  -24.6781 C   0  0  0  0  0  0  0  0  0  0  0  0
   14.2269  -30.6017  -24.8431 C   0  0  0  0  0  0  0  0  0  0  0  0
   15.5560  -30.1657  -25.2243 N   0  0  2  0  0  4  0  0  0  0  0  0
   15.5550  -28.8190  -25.7469 C   0  0  0  0  0  0  0  0  0  0  0  0
   15.4361  -27.8061  -24.6599 C   0  0  0  0  0  0  0  0  0  0  0  0
   16.5651  -27.4306  -23.9643 C   0  0  0  0  0  0  0  0  0  0  0  0
   16.4826  -26.4933  -22.9529 C   0  0  0  0  0  0  0  0  0  0  0  0
   14.2411  -27.2146  -24.3076 C   0  0  0  0  0  0  0  0  0  0  0  0
   14.1473  -26.2778  -23.3000 C   0  0  0  0  0  0  0  0  0  0  0  0
   15.2785  -25.8915  -22.5919 C   0  0  0  0  0  0  0  0  0  0  0  0
   15.2204  -24.9029  -21.5303 C   0  0  0  0  0  0  0  0  0  0  0  0
   15.0113  -23.5371  -21.7535 C   0  0  0  0  0  0  0  0  0  0  0  0
   14.8369  -22.9358  -23.0674 C   0  0  0  0  0  0  0  0  0  0  0  0
   15.0382  -23.5580  -24.1174 O   0  0  0  0  0  0  0  0  0  0  0  0
   14.4179  -21.5779  -23.1503 N   0  0  0  0  0  0  0  0  0  0  0  0
   14.1775  -20.9239  -24.4282 C   0  0  0  0  0  0  0  0  0  0  0  0
   12.7524  -20.4150  -24.4755 C   0  0  0  0  0  0  0  0  0  0  0  0
   15.0167  -22.9816  -20.5354 N   0  0  0  0  0  0  0  0  0  0  0  0
   15.2097  -23.8952  -19.6208 O   0  0  0  0  0  0  0  0  0  0  0  0
   15.3405  -25.0880  -20.1776 C   0  0  0  0  0  0  0  0  0  0  0  0
   15.5686  -26.3671  -19.5212 C   0  0  0  0  0  0  0  0  0  0  0  0
   14.8181  -27.4871  -19.6702 C   0  0  0  0  0  0  0  0  0  0  0  0
   15.1013  -28.6798  -19.0060 C   0  0  0  0  0  0  0  0  0  0  0  0
   14.2529  -29.8922  -19.1941 C   0  0  1  0  0  0  0  0  0  0  0  0
   13.1167  -29.9100  -18.1839 C   0  0  0  0  0  0  0  0  0  0  0  0
   13.7742  -29.9186  -20.6163 C   0  0  0  0  0  0  0  0  0  0  0  0
   16.1994  -28.7050  -18.1614 C   0  0  0  0  0  0  0  0  0  0  0  0
   16.4789  -29.8981  -17.4999 O   0  0  0  0  0  0  0  0  0  0  0  0
   16.9924  -27.5992  -17.9744 C   0  0  0  0  0  0  0  0  0  0  0  0
   16.6654  -26.4571  -18.6531 C   0  0  0  0  0  0  0  0  0  0  0  0
   17.4838  -25.3373  -18.4525 O   0  0  0  0  0  0  0  0  0  0  0  0
  1  2  1  0
  1  6  1  0
  2  3  1  0
  3  4  1  0
  4  5  1  0
  5  6  1  0
  6  7  1  6
  7  8  1  0
  8  9  2  0
  8 11  1  0
  9 10  1  0
 10 13  2  0
 11 12  2  0
 12 13  1  0
 13 14  1  0
 14 15  1  0
 14 23  2  0
 15 16  1  0
 15 21  2  0
 16 17  2  0
 16 18  1  0
 18 19  1  0
 19 20  1  0
 21 22  1  0
 22 23  1  0
 23 24  1  0
 24 25  2  0
 24 33  1  0
 25 26  1  0
 26 27  1  0
 26 30  2  0
 27 28  1  1
 27 29  1  0
 30 31  1  0
 30 32  1  0
 32 33  2  0
 33 34  1  0
M  CHG  1   6   1
M  END
$$$$
