
     RDKit          3D

 34 37  0  0  0  0  0  0  0  0999 V2000
   14.8686  -29.6992  -27.6595 C   0  0  0  0  0  0  0  0  0  0  0  0
   15.8450  -30.2986  -28.6346 C   0  0  0  0  0  0  0  0  0  0  0  0
   16.6648  -29.3815  -29.2487 O   0  0  0  0  0  0  0  0  0  0  0  0
   16.5530  -28.0925  -28.7313 C   0  0  0  0  0  0  0  0  0  0  0  0
   16.7222  -28.2441  -27.2143 C   0  0  0  0  0  0  0  0  0  0  0  0
   15.4614  -28.7745  -26.7337 N   0  0  2  0  0  4  0  0  0  0  0  0
   15.5692  -29.2925  -25.3894 C   0  0  0  0  0  0  0  0  0  0  0  0
   15.5661  -28.1997  -24.3758 C   0  0  0  0  0  0  0  0  0  0  0  0
   14.3720  -27.6013  -24.0358 C   0  0  0  0  0  0  0  0  0  0  0  0
   14.3413  -26.5869  -23.0986 C   0  0  0  0  0  0  0  0  0  0  0  0
   16.7091  -27.7486  -23.7495 C   0  0  0  0  0  0  0  0  0  0  0  0
   16.6899  -26.7371  -22.8125 C   0  0  0  0  0  0  0  0  0  0  0  0
   15.4923  -26.1265  -22.4617 C   0  0  0  0  0  0  0  0  0  0  0  0
   15.4315  -25.0641  -21.4742 C   0  0  0  0  0  0  0  0  0  0  0  0
   15.1978  -23.7216  -21.7933 C   0  0  0  0  0  0  0  0  0  0  0  0
   14.9976  -23.2204  -23.1450 C   0  0  0  0  0  0  0  0  0  0  0  0
   14.7997  -23.9677  -24.1106 O   0  0  0  0  0  0  0  0  0  0  0  0
   15.0301  -21.8147  -23.3673 N   0  0  0  0  0  0  0  0  0  0  0  0
   14.4998  -21.2161  -24.5834 C   0  0  0  0  0  0  0  0  0  0  0  0
   13.1230  -20.6493  -24.3092 C   0  0  0  0  0  0  0  0  0  0  0  0
   15.2093  -23.0786  -20.6190 N   0  0  0  0  0  0  0  0  0  0  0  0
   15.4282  -23.9201  -19.6430 O   0  0  0  0  0  0  0  0  0  0  0  0
   15.5712  -25.1482  -20.1133 C   0  0  0  0  0  0  0  0  0  0  0  0
   15.8279  -26.3724  -19.3687 C   0  0  0  0  0  0  0  0  0  0  0  0
   15.0969  -27.5135  -19.4300 C   0  0  0  0  0  0  0  0  0  0  0  0
   15.4072  -28.6499  -18.6844 C   0  0  0  0  0  0  0  0  0  0  0  0
   14.5798  -29.8876  -18.7771 C   0  0  1  0  0  0  0  0  0  0  0  0
   13.4676  -29.8645  -17.7407 C   0  0  0  0  0  0  0  0  0  0  0  0
   14.0694  -30.0112  -20.1831 C   0  0  0  0  0  0  0  0  0  0  0  0
   16.5121  -28.5947  -17.8501 C   0  0  0  0  0  0  0  0  0  0  0  0
   16.8186  -29.7319  -17.1070 O   0  0  0  0  0  0  0  0  0  0  0  0
   17.2861  -27.4644  -17.7503 C   0  0  0  0  0  0  0  0  0  0  0  0
   16.9329  -26.3801  -18.5064 C   0  0  0  0  0  0  0  0  0  0  0  0
   17.7320  -25.2344  -18.3942 O   0  0  0  0  0  0  0  0  0  0  0  0
  1  2  1  0
  1  6  1  0
  2  3  1  0
  3  4  1  0
  4  5  1  0
  5  6  1  0
  6  7  1  1
  7  8  1  0
  8  9  2  0
  8 11  1  0
  9 10  1  0
 10 13  2  0
 11 12  2  0
 12 13  1  0
 13 14  1  0
 14 15  1  0
 14 23  2  0
 15 16  1  0
 15 21  2  0
 16 17  2  0
 16 18  1  0
 18 19  1  0
 19 20  1  0
 21 22  1  0
 22 23  1  0
 23 24  1  0
 24 25  2  0
 24 33  1  0
 25 26  1  0
 26 27  1  0
 26 30  2  0
 27 28  1  1
 27 29  1  0
 30 31  1  0
 30 32  1  0
 32 33  2  0
 33 34  1  0
M  CHG  1   6   1
M  END
$$$$
