
     RDKit          3D

 34 37  0  0  0  0  0  0  0  0999 V2000
   14.6552  -30.6628  -24.6029 C   0  0  0  0  0  0  0  0  0  0  0  0
   15.4532  -31.8498  -25.1548 C   0  0  0  0  0  0  0  0  0  0  0  0
   16.3963  -31.4446  -26.0756 O   0  0  0  0  0  0  0  0  0  0  0  0
   16.5482  -30.0716  -26.1594 C   0  0  0  0  0  0  0  0  0  0  0  0
   15.2705  -29.3361  -26.4163 C   0  0  0  0  0  0  0  0  0  0  0  0
   14.1353  -29.9554  -25.7324 N   0  0  2  0  0  4  0  0  0  0  0  0
   13.1851  -28.9368  -25.4249 C   0  0  0  0  0  0  0  0  0  0  0  0
   13.6764  -27.9291  -24.4672 C   0  0  0  0  0  0  0  0  0  0  0  0
   15.0002  -27.5429  -24.4869 C   0  0  0  0  0  0  0  0  0  0  0  0
   15.4960  -26.5931  -23.5973 C   0  0  0  0  0  0  0  0  0  0  0  0
   12.8638  -27.3338  -23.5277 C   0  0  0  0  0  0  0  0  0  0  0  0
   13.3576  -26.3806  -22.6338 C   0  0  0  0  0  0  0  0  0  0  0  0
   14.6867  -26.0069  -22.6694 C   0  0  0  0  0  0  0  0  0  0  0  0
   15.1655  -25.0120  -21.7269 C   0  0  0  0  0  0  0  0  0  0  0  0
   15.2144  -23.6524  -21.9425 C   0  0  0  0  0  0  0  0  0  0  0  0
   14.7916  -22.9815  -23.1618 C   0  0  0  0  0  0  0  0  0  0  0  0
   14.3484  -23.5740  -24.1587 O   0  0  0  0  0  0  0  0  0  0  0  0
   14.8776  -21.5470  -23.2555 N   0  0  0  0  0  0  0  0  0  0  0  0
   14.3772  -20.8658  -24.4045 C   0  0  0  0  0  0  0  0  0  0  0  0
   14.4896  -21.7246  -25.6565 C   0  0  0  0  0  0  0  0  0  0  0  0
   15.7207  -23.1448  -20.8093 N   0  0  0  0  0  0  0  0  0  0  0  0
   15.9700  -24.0853  -19.9563 O   0  0  0  0  0  0  0  0  0  0  0  0
   15.6511  -25.2796  -20.4530 C   0  0  0  0  0  0  0  0  0  0  0  0
   15.7888  -26.5718  -19.7904 C   0  0  0  0  0  0  0  0  0  0  0  0
   15.2343  -27.7402  -20.2667 C   0  0  0  0  0  0  0  0  0  0  0  0
   15.3808  -28.9521  -19.6173 C   0  0  0  0  0  0  0  0  0  0  0  0
   14.7564  -30.1356  -20.1998 C   0  0  1  0  0  0  0  0  0  0  0  0
   13.2616  -30.1882  -20.0092 C   0  0  0  0  0  0  0  0  0  0  0  0
   15.0056  -30.1331  -21.6961 C   0  0  0  0  0  0  0  0  0  0  0  0
   16.1161  -28.9484  -18.4535 C   0  0  0  0  0  0  0  0  0  0  0  0
   16.2724  -30.1494  -17.7924 O   0  0  0  0  0  0  0  0  0  0  0  0
   16.6805  -27.7908  -17.9575 C   0  0  0  0  0  0  0  0  0  0  0  0
   16.5190  -26.6069  -18.6211 C   0  0  0  0  0  0  0  0  0  0  0  0
   17.1018  -25.4497  -18.0956 O   0  0  0  0  0  0  0  0  0  0  0  0
  1  2  1  1
  1  6  1  0
  2  3  1  6
  4  3  1  1
  5  4  1  1
  5  6  1  0
  6  7  1  1
  7  8  1  6
  8  9  2  0
  8 11  1  0
  9 10  1  0
 10 13  2  0
 11 12  2  0
 12 13  1  0
 13 14  1  0
 14 15  1  0
 14 23  2  0
 15 16  1  0
 15 21  2  0
 16 17  2  0
 16 18  1  0
 19 18  1  1
 20 19  1  6
 21 22  1  0
 22 23  1  0
 23 24  1  0
 24 25  2  0
 24 33  1  0
 25 26  1  0
 27 26  1  6
 26 30  2  0
 28 27  1  6
 29 27  1  6
 30 31  1  0
 30 32  1  0
 32 33  2  0
 33 34  1  0
M  CHG  1   6   1
M  END
$$$$
