
     RDKit          3D

 34 37  0  0  0  0  0  0  0  0999 V2000
   15.5700  -30.4478  -23.7488 C   0  0  0  0  0  0  0  0  0  0  0  0
   15.4604  -31.9347  -23.3917 C   0  0  0  0  0  0  0  0  0  0  0  0
   16.2644  -32.7121  -24.1983 O   0  0  0  0  0  0  0  0  0  0  0  0
   17.1210  -31.9861  -25.0073 C   0  0  0  0  0  0  0  0  0  0  0  0
   16.4319  -30.9605  -25.8516 C   0  0  0  0  0  0  0  0  0  0  0  0
   15.3073  -30.3407  -25.1510 N   0  0  2  0  0  4  0  0  0  0  0  0
   15.1522  -29.0091  -25.6387 C   0  0  0  0  0  0  0  0  0  0  0  0
   15.2161  -27.9757  -24.5888 C   0  0  0  0  0  0  0  0  0  0  0  0
   14.0643  -27.3455  -24.1667 C   0  0  0  0  0  0  0  0  0  0  0  0
   14.0897  -26.3666  -23.1767 C   0  0  0  0  0  0  0  0  0  0  0  0
   16.3954  -27.5944  -23.9879 C   0  0  0  0  0  0  0  0  0  0  0  0
   16.4247  -26.6127  -22.9943 C   0  0  0  0  0  0  0  0  0  0  0  0
   15.2601  -25.9931  -22.5851 C   0  0  0  0  0  0  0  0  0  0  0  0
   15.3272  -24.9787  -21.5489 C   0  0  0  0  0  0  0  0  0  0  0  0
   15.2185  -23.6191  -21.7410 C   0  0  0  0  0  0  0  0  0  0  0  0
   15.0175  -22.9677  -23.0259 C   0  0  0  0  0  0  0  0  0  0  0  0
   15.2314  -23.5152  -24.1194 O   0  0  0  0  0  0  0  0  0  0  0  0
   14.5438  -21.6085  -23.0725 N   0  0  0  0  0  0  0  0  0  0  0  0
   14.4477  -20.9181  -24.3169 C   0  0  0  0  0  0  0  0  0  0  0  0
   13.0106  -20.8634  -24.8162 C   0  0  0  0  0  0  0  0  0  0  0  0
   15.3392  -23.0900  -20.5148 N   0  0  0  0  0  0  0  0  0  0  0  0
   15.5080  -24.0181  -19.6290 O   0  0  0  0  0  0  0  0  0  0  0  0
   15.5123  -25.2246  -20.1941 C   0  0  0  0  0  0  0  0  0  0  0  0
   15.6766  -26.5087  -19.5219 C   0  0  0  0  0  0  0  0  0  0  0  0
   14.8021  -27.5646  -19.6625 C   0  0  0  0  0  0  0  0  0  0  0  0
   14.9825  -28.7716  -19.0125 C   0  0  0  0  0  0  0  0  0  0  0  0
   14.0019  -29.8315  -19.2246 C   0  0  1  0  0  0  0  0  0  0  0  0
   12.6524  -29.5387  -18.6193 C   0  0  0  0  0  0  0  0  0  0  0  0
   13.7832  -30.0034  -20.7158 C   0  0  0  0  0  0  0  0  0  0  0  0
   16.0906  -28.8819  -18.2033 C   0  0  0  0  0  0  0  0  0  0  0  0
   16.2861  -30.0799  -17.5470 O   0  0  0  0  0  0  0  0  0  0  0  0
   16.9798  -27.8381  -18.0472 C   0  0  0  0  0  0  0  0  0  0  0  0
   16.7758  -26.6561  -18.7024 C   0  0  0  0  0  0  0  0  0  0  0  0
   17.6928  -25.6154  -18.5257 O   0  0  0  0  0  0  0  0  0  0  0  0
  1  2  1  1
  1  6  1  0
  2  3  1  6
  4  3  1  1
  5  4  1  1
  5  6  1  0
  6  7  1  6
  7  8  1  6
  8  9  2  0
  8 11  1  0
  9 10  1  0
 10 13  2  0
 11 12  2  0
 12 13  1  0
 13 14  1  0
 14 15  1  0
 14 23  2  0
 15 16  1  0
 15 21  2  0
 16 17  2  0
 16 18  1  0
 19 18  1  1
 20 19  1  6
 21 22  1  0
 22 23  1  0
 23 24  1  0
 24 25  2  0
 24 33  1  0
 25 26  1  0
 27 26  1  6
 26 30  2  0
 28 27  1  6
 29 27  1  6
 30 31  1  0
 30 32  1  0
 32 33  2  0
 33 34  1  0
M  CHG  1   6   1
M  END
$$$$
