
     RDKit          3D

 34 37  0  0  0  0  0  0  0  0999 V2000
   17.0450  -28.5984  -26.9311 C   0  0  0  0  0  0  0  0  0  0  0  0
   17.2840  -28.4301  -28.4360 C   0  0  0  0  0  0  0  0  0  0  0  0
   16.3758  -27.5598  -29.0011 O   0  0  0  0  0  0  0  0  0  0  0  0
   15.5860  -26.8937  -28.0804 C   0  0  0  0  0  0  0  0  0  0  0  0
   14.8655  -27.8007  -27.1328 C   0  0  0  0  0  0  0  0  0  0  0  0
   15.6718  -28.9663  -26.7709 N   0  0  2  0  0  4  0  0  0  0  0  0
   15.3038  -29.3770  -25.4552 C   0  0  0  0  0  0  0  0  0  0  0  0
   15.2440  -28.2741  -24.4785 C   0  0  0  0  0  0  0  0  0  0  0  0
   16.3599  -27.9433  -23.7386 C   0  0  0  0  0  0  0  0  0  0  0  0
   16.3375  -26.9067  -22.8091 C   0  0  0  0  0  0  0  0  0  0  0  0
   14.1037  -27.5335  -24.2581 C   0  0  0  0  0  0  0  0  0  0  0  0
   14.0775  -26.4928  -23.3264 C   0  0  0  0  0  0  0  0  0  0  0  0
   15.2057  -26.1767  -22.5951 C   0  0  0  0  0  0  0  0  0  0  0  0
   15.1434  -25.0879  -21.6369 C   0  0  0  0  0  0  0  0  0  0  0  0
   14.9384  -23.7591  -21.9362 C   0  0  0  0  0  0  0  0  0  0  0  0
   14.7497  -23.2208  -23.2742 C   0  0  0  0  0  0  0  0  0  0  0  0
   15.1605  -23.7748  -24.3064 O   0  0  0  0  0  0  0  0  0  0  0  0
   14.0504  -21.9744  -23.4516 N   0  0  0  0  0  0  0  0  0  0  0  0
   13.8024  -21.4640  -24.7603 C   0  0  0  0  0  0  0  0  0  0  0  0
   14.8159  -20.3951  -25.1447 C   0  0  0  0  0  0  0  0  0  0  0  0
   14.9581  -23.1348  -20.7496 N   0  0  0  0  0  0  0  0  0  0  0  0
   15.1557  -23.9796  -19.7896 O   0  0  0  0  0  0  0  0  0  0  0  0
   15.2813  -25.2194  -20.2608 C   0  0  0  0  0  0  0  0  0  0  0  0
   15.5124  -26.4340  -19.4867 C   0  0  0  0  0  0  0  0  0  0  0  0
   14.7695  -27.5861  -19.6286 C   0  0  0  0  0  0  0  0  0  0  0  0
   15.0108  -28.7237  -18.8807 C   0  0  0  0  0  0  0  0  0  0  0  0
   14.1701  -29.8959  -19.1029 C   0  0  1  0  0  0  0  0  0  0  0  0
   12.7900  -29.7735  -18.5080 C   0  0  0  0  0  0  0  0  0  0  0  0
   13.9859  -30.0891  -20.5961 C   0  0  0  0  0  0  0  0  0  0  0  0
   16.0416  -28.6618  -17.9705 C   0  0  0  0  0  0  0  0  0  0  0  0
   16.2962  -29.7885  -17.2156 O   0  0  0  0  0  0  0  0  0  0  0  0
   16.7988  -27.5191  -17.8109 C   0  0  0  0  0  0  0  0  0  0  0  0
   16.5373  -26.4092  -18.5645 C   0  0  0  0  0  0  0  0  0  0  0  0
   17.3204  -25.2654  -18.3817 O   0  0  0  0  0  0  0  0  0  0  0  0
  1  2  1  1
  1  6  1  0
  2  3  1  6
  4  3  1  1
  5  4  1  1
  5  6  1  0
  6  7  1  1
  7  8  1  6
  8  9  2  0
  8 11  1  0
  9 10  1  0
 10 13  2  0
 11 12  2  0
 12 13  1  0
 13 14  1  0
 14 15  1  0
 14 23  2  0
 15 16  1  0
 15 21  2  0
 16 17  2  0
 16 18  1  0
 19 18  1  1
 20 19  1  6
 21 22  1  0
 22 23  1  0
 23 24  1  0
 24 25  2  0
 24 33  1  0
 25 26  1  0
 27 26  1  6
 26 30  2  0
 28 27  1  6
 29 27  1  6
 30 31  1  0
 30 32  1  0
 32 33  2  0
 33 34  1  0
M  CHG  1   6   1
M  END
$$$$
