
     RDKit          3D

 34 37  0  0  0  0  0  0  0  0999 V2000
   16.7052  -27.9180  -26.6203 C   0  0  0  0  0  0  0  0  0  0  0  0
   16.5390  -27.7792  -28.1091 C   0  0  0  0  0  0  0  0  0  0  0  0
   17.0064  -28.8513  -28.8318 O   0  0  0  0  0  0  0  0  0  0  0  0
   17.3920  -29.9345  -28.0448 C   0  0  0  0  0  0  0  0  0  0  0  0
   16.2027  -30.2099  -27.1161 C   0  0  0  0  0  0  0  0  0  0  0  0
   16.2577  -29.1792  -26.0980 N   0  0  2  0  0  4  0  0  0  0  0  0
   15.0245  -29.0899  -25.3508 C   0  0  0  0  0  0  0  0  0  0  0  0
   15.0863  -28.0241  -24.3107 C   0  0  0  0  0  0  0  0  0  0  0  0
   16.2790  -27.7857  -23.6624 C   0  0  0  0  0  0  0  0  0  0  0  0
   16.3636  -26.8030  -22.6950 C   0  0  0  0  0  0  0  0  0  0  0  0
   14.0001  -27.2513  -23.9571 C   0  0  0  0  0  0  0  0  0  0  0  0
   14.0734  -26.2678  -22.9933 C   0  0  0  0  0  0  0  0  0  0  0  0
   15.2701  -26.0184  -22.3331 C   0  0  0  0  0  0  0  0  0  0  0  0
   15.3878  -24.9865  -21.3188 C   0  0  0  0  0  0  0  0  0  0  0  0
   15.2732  -23.6179  -21.5883 C   0  0  0  0  0  0  0  0  0  0  0  0
   15.0336  -23.0573  -22.9099 C   0  0  0  0  0  0  0  0  0  0  0  0
   15.3252  -23.6574  -23.9515 O   0  0  0  0  0  0  0  0  0  0  0  0
   14.4399  -21.7674  -23.0107 N   0  0  0  0  0  0  0  0  0  0  0  0
   14.1281  -21.1627  -24.2974 C   0  0  0  0  0  0  0  0  0  0  0  0
   12.6269  -21.1326  -24.4914 C   0  0  0  0  0  0  0  0  0  0  0  0
   15.4321  -23.0162  -20.4030 N   0  0  0  0  0  0  0  0  0  0  0  0
   15.6291  -23.9054  -19.4654 O   0  0  0  0  0  0  0  0  0  0  0  0
   15.6113  -25.1265  -19.9737 C   0  0  0  0  0  0  0  0  0  0  0  0
   15.7903  -26.3929  -19.2788 C   0  0  0  0  0  0  0  0  0  0  0  0
   14.9630  -27.4658  -19.3465 C   0  0  0  0  0  0  0  0  0  0  0  0
   15.2028  -28.6494  -18.6498 C   0  0  0  0  0  0  0  0  0  0  0  0
   14.2700  -29.8093  -18.7480 C   0  0  1  0  0  0  0  0  0  0  0  0
   13.1313  -29.6638  -17.7511 C   0  0  0  0  0  0  0  0  0  0  0  0
   13.7966  -29.9167  -20.1682 C   0  0  0  0  0  0  0  0  0  0  0  0
   16.3387  -28.7160  -17.8592 C   0  0  0  0  0  0  0  0  0  0  0  0
   16.5747  -29.9000  -17.1650 O   0  0  0  0  0  0  0  0  0  0  0  0
   17.2094  -27.6588  -17.7551 C   0  0  0  0  0  0  0  0  0  0  0  0
   16.9220  -26.5232  -18.4621 C   0  0  0  0  0  0  0  0  0  0  0  0
   17.8195  -25.4533  -18.3462 O   0  0  0  0  0  0  0  0  0  0  0  0
  1  2  1  0
  1  6  1  0
  2  3  1  0
  3  4  1  0
  4  5  1  0
  5  6  1  0
  6  7  1  6
  7  8  1  0
  8  9  2  0
  8 11  1  0
  9 10  1  0
 10 13  2  0
 11 12  2  0
 12 13  1  0
 13 14  1  0
 14 15  1  0
 14 23  2  0
 15 16  1  0
 15 21  2  0
 16 17  2  0
 16 18  1  0
 18 19  1  0
 19 20  1  0
 21 22  1  0
 22 23  1  0
 23 24  1  0
 24 25  2  0
 24 33  1  0
 25 26  1  0
 26 27  1  0
 26 30  2  0
 27 28  1  1
 27 29  1  0
 30 31  1  0
 30 32  1  0
 32 33  2  0
 33 34  1  0
M  CHG  1   6   1
M  END
$$$$
