
     RDKit          3D

 34 37  0  0  0  0  0  0  0  0999 V2000
   14.7099  -30.3584  -24.0668 C   0  0  0  0  0  0  0  0  0  0  0  0
   15.5884  -31.5352  -23.7402 C   0  0  0  0  0  0  0  0  0  0  0  0
   15.3868  -32.6311  -24.5455 O   0  0  0  0  0  0  0  0  0  0  0  0
   14.5285  -32.3912  -25.6166 C   0  0  0  0  0  0  0  0  0  0  0  0
   15.0754  -31.1349  -26.3062 C   0  0  0  0  0  0  0  0  0  0  0  0
   14.6768  -30.0244  -25.4636 N   0  0  2  0  0  4  0  0  0  0  0  0
   15.3980  -28.8147  -25.7853 C   0  0  0  0  0  0  0  0  0  0  0  0
   15.3005  -27.8075  -24.6910 C   0  0  0  0  0  0  0  0  0  0  0  0
   16.3902  -27.5941  -23.8745 C   0  0  0  0  0  0  0  0  0  0  0  0
   16.3266  -26.6656  -22.8535 C   0  0  0  0  0  0  0  0  0  0  0  0
   14.1637  -27.0655  -24.4478 C   0  0  0  0  0  0  0  0  0  0  0  0
   14.0893  -26.1361  -23.4319 C   0  0  0  0  0  0  0  0  0  0  0  0
   15.1812  -25.9124  -22.6024 C   0  0  0  0  0  0  0  0  0  0  0  0
   15.1431  -24.9370  -21.5278 C   0  0  0  0  0  0  0  0  0  0  0  0
   14.9776  -23.5626  -21.7339 C   0  0  0  0  0  0  0  0  0  0  0  0
   14.8337  -22.9385  -23.0409 C   0  0  0  0  0  0  0  0  0  0  0  0
   15.3257  -23.4213  -24.0680 O   0  0  0  0  0  0  0  0  0  0  0  0
   14.0978  -21.7244  -23.1441 N   0  0  0  0  0  0  0  0  0  0  0  0
   13.9380  -21.0274  -24.4119 C   0  0  0  0  0  0  0  0  0  0  0  0
   15.0254  -19.9837  -24.5556 C   0  0  0  0  0  0  0  0  0  0  0  0
   14.9885  -23.0241  -20.5083 N   0  0  0  0  0  0  0  0  0  0  0  0
   15.1452  -23.9555  -19.6047 O   0  0  0  0  0  0  0  0  0  0  0  0
   15.2450  -25.1440  -20.1767 C   0  0  0  0  0  0  0  0  0  0  0  0
   15.4282  -26.4382  -19.5361 C   0  0  0  0  0  0  0  0  0  0  0  0
   14.6652  -27.5425  -19.7323 C   0  0  0  0  0  0  0  0  0  0  0  0
   14.9046  -28.7513  -19.0804 C   0  0  0  0  0  0  0  0  0  0  0  0
   14.0436  -29.9455  -19.3208 C   0  0  1  0  0  0  0  0  0  0  0  0
   12.9274  -30.0143  -18.2907 C   0  0  0  0  0  0  0  0  0  0  0  0
   13.5369  -29.8869  -20.7323 C   0  0  0  0  0  0  0  0  0  0  0  0
   15.9709  -28.8103  -18.1976 C   0  0  0  0  0  0  0  0  0  0  0  0
   16.2068  -30.0195  -17.5484 O   0  0  0  0  0  0  0  0  0  0  0  0
   16.7748  -27.7217  -17.9622 C   0  0  0  0  0  0  0  0  0  0  0  0
   16.4914  -26.5623  -18.6311 C   0  0  0  0  0  0  0  0  0  0  0  0
   17.3203  -25.4604  -18.3810 O   0  0  0  0  0  0  0  0  0  0  0  0
  1  2  1  0
  1  6  1  0
  2  3  1  0
  3  4  1  0
  4  5  1  0
  5  6  1  0
  6  7  1  1
  7  8  1  0
  8  9  2  0
  8 11  1  0
  9 10  1  0
 10 13  2  0
 11 12  2  0
 12 13  1  0
 13 14  1  0
 14 15  1  0
 14 23  2  0
 15 16  1  0
 15 21  2  0
 16 17  2  0
 16 18  1  0
 18 19  1  0
 19 20  1  0
 21 22  1  0
 22 23  1  0
 23 24  1  0
 24 25  2  0
 24 33  1  0
 25 26  1  0
 26 27  1  0
 26 30  2  0
 27 28  1  1
 27 29  1  0
 30 31  1  0
 30 32  1  0
 32 33  2  0
 33 34  1  0
M  CHG  1   6   1
M  END
$$$$
