
     RDKit          3D

 34 37  0  0  0  0  0  0  0  0999 V2000
   15.6996  -29.6103  -27.8988 C   0  0  0  0  0  0  0  0  0  0  0  0
   16.9594  -29.4341  -28.7021 C   0  0  0  0  0  0  0  0  0  0  0  0
   17.1694  -28.1508  -29.1488 O   0  0  0  0  0  0  0  0  0  0  0  0
   16.2668  -27.2220  -28.6347 C   0  0  0  0  0  0  0  0  0  0  0  0
   16.2935  -27.4233  -27.1143 C   0  0  0  0  0  0  0  0  0  0  0  0
   15.5220  -28.6259  -26.8678 N   0  0  2  0  0  4  0  0  0  0  0  0
   15.7336  -29.1410  -25.5349 C   0  0  0  0  0  0  0  0  0  0  0  0
   15.6198  -28.0693  -24.5053 C   0  0  0  0  0  0  0  0  0  0  0  0
   16.7559  -27.6389  -23.8545 C   0  0  0  0  0  0  0  0  0  0  0  0
   16.6782  -26.6462  -22.8968 C   0  0  0  0  0  0  0  0  0  0  0  0
   14.4229  -27.4751  -24.1642 C   0  0  0  0  0  0  0  0  0  0  0  0
   14.3339  -26.4834  -23.2101 C   0  0  0  0  0  0  0  0  0  0  0  0
   15.4722  -26.0414  -22.5474 C   0  0  0  0  0  0  0  0  0  0  0  0
   15.4192  -24.9945  -21.5431 C   0  0  0  0  0  0  0  0  0  0  0  0
   15.2091  -23.6434  -21.8421 C   0  0  0  0  0  0  0  0  0  0  0  0
   15.0286  -23.1172  -23.1870 C   0  0  0  0  0  0  0  0  0  0  0  0
   15.1997  -23.8052  -24.2006 O   0  0  0  0  0  0  0  0  0  0  0  0
   14.6393  -21.7571  -23.3450 N   0  0  0  0  0  0  0  0  0  0  0  0
   14.2794  -21.2061  -24.6432 C   0  0  0  0  0  0  0  0  0  0  0  0
   12.7816  -21.3091  -24.8386 C   0  0  0  0  0  0  0  0  0  0  0  0
   15.2203  -23.0200  -20.6574 N   0  0  0  0  0  0  0  0  0  0  0  0
   15.4175  -23.8806  -19.6935 O   0  0  0  0  0  0  0  0  0  0  0  0
   15.5456  -25.1030  -20.1826 C   0  0  0  0  0  0  0  0  0  0  0  0
   15.7768  -26.3430  -19.4561 C   0  0  0  0  0  0  0  0  0  0  0  0
   15.0484  -27.4820  -19.5668 C   0  0  0  0  0  0  0  0  0  0  0  0
   15.3330  -28.6343  -18.8355 C   0  0  0  0  0  0  0  0  0  0  0  0
   14.5093  -29.8692  -18.9830 C   0  0  1  0  0  0  0  0  0  0  0  0
   13.3505  -29.8579  -17.9988 C   0  0  0  0  0  0  0  0  0  0  0  0
   14.0643  -29.9731  -20.4126 C   0  0  0  0  0  0  0  0  0  0  0  0
   16.4087  -28.5977  -17.9630 C   0  0  0  0  0  0  0  0  0  0  0  0
   16.6898  -29.7508  -17.2344 O   0  0  0  0  0  0  0  0  0  0  0  0
   17.1788  -27.4703  -17.8126 C   0  0  0  0  0  0  0  0  0  0  0  0
   16.8516  -26.3699  -18.5569 C   0  0  0  0  0  0  0  0  0  0  0  0
   17.6464  -25.2274  -18.3930 O   0  0  0  0  0  0  0  0  0  0  0  0
  1  2  1  0
  1  6  1  0
  2  3  1  0
  3  4  1  0
  4  5  1  0
  5  6  1  0
  6  7  1  1
  7  8  1  0
  8  9  2  0
  8 11  1  0
  9 10  1  0
 10 13  2  0
 11 12  2  0
 12 13  1  0
 13 14  1  0
 14 15  1  0
 14 23  2  0
 15 16  1  0
 15 21  2  0
 16 17  2  0
 16 18  1  0
 18 19  1  0
 19 20  1  0
 21 22  1  0
 22 23  1  0
 23 24  1  0
 24 25  2  0
 24 33  1  0
 25 26  1  0
 26 27  1  0
 26 30  2  0
 27 28  1  1
 27 29  1  0
 30 31  1  0
 30 32  1  0
 32 33  2  0
 33 34  1  0
M  CHG  1   6   1
M  END
$$$$
