
     RDKit          3D

 34 37  0  0  0  0  0  0  0  0999 V2000
   16.0032  -30.9944  -26.6575 C   0  0  0  0  0  0  0  0  0  0  0  0
   15.1403  -32.2016  -26.9057 C   0  0  0  0  0  0  0  0  0  0  0  0
   14.8809  -32.9508  -25.7824 O   0  0  0  0  0  0  0  0  0  0  0  0
   15.3244  -32.3626  -24.5997 C   0  0  0  0  0  0  0  0  0  0  0  0
   14.7537  -30.9389  -24.6114 C   0  0  0  0  0  0  0  0  0  0  0  0
   15.5823  -30.1955  -25.5403 N   0  0  2  0  0  4  0  0  0  0  0  0
   14.9756  -28.9416  -25.9231 C   0  0  0  0  0  0  0  0  0  0  0  0
   15.0721  -27.9278  -24.8348 C   0  0  0  0  0  0  0  0  0  0  0  0
   13.9211  -27.3289  -24.3698 C   0  0  0  0  0  0  0  0  0  0  0  0
   13.9827  -26.3868  -23.3612 C   0  0  0  0  0  0  0  0  0  0  0  0
   16.2671  -27.5515  -24.2583 C   0  0  0  0  0  0  0  0  0  0  0  0
   16.3401  -26.6126  -23.2510 C   0  0  0  0  0  0  0  0  0  0  0  0
   15.1867  -26.0022  -22.7741 C   0  0  0  0  0  0  0  0  0  0  0  0
   15.2231  -25.0154  -21.7100 C   0  0  0  0  0  0  0  0  0  0  0  0
   15.0760  -23.6400  -21.9229 C   0  0  0  0  0  0  0  0  0  0  0  0
   14.8798  -23.0262  -23.2279 C   0  0  0  0  0  0  0  0  0  0  0  0
   14.8877  -23.6779  -24.2791 O   0  0  0  0  0  0  0  0  0  0  0  0
   14.6698  -21.6201  -23.3001 N   0  0  0  0  0  0  0  0  0  0  0  0
   14.3411  -20.9549  -24.5523 C   0  0  0  0  0  0  0  0  0  0  0  0
   12.8371  -20.8463  -24.6875 C   0  0  0  0  0  0  0  0  0  0  0  0
   15.1597  -23.0894  -20.7054 N   0  0  0  0  0  0  0  0  0  0  0  0
   15.3421  -24.0148  -19.8004 O   0  0  0  0  0  0  0  0  0  0  0  0
   15.3883  -25.2109  -20.3634 C   0  0  0  0  0  0  0  0  0  0  0  0
   15.5764  -26.5021  -19.7183 C   0  0  0  0  0  0  0  0  0  0  0  0
   14.7913  -27.5969  -19.8769 C   0  0  0  0  0  0  0  0  0  0  0  0
   15.0372  -28.8035  -19.2232 C   0  0  0  0  0  0  0  0  0  0  0  0
   14.1513  -29.9872  -19.4216 C   0  0  1  0  0  0  0  0  0  0  0  0
   14.9465  -31.1634  -19.9653 C   0  0  0  0  0  0  0  0  0  0  0  0
   13.4695  -30.2913  -18.1195 C   0  0  0  0  0  0  0  0  0  0  0  0
   16.1340  -28.8704  -18.3793 C   0  0  0  0  0  0  0  0  0  0  0  0
   16.3762  -30.0775  -17.7283 O   0  0  0  0  0  0  0  0  0  0  0  0
   16.9612  -27.7916  -18.1830 C   0  0  0  0  0  0  0  0  0  0  0  0
   16.6700  -26.6339  -18.8515 C   0  0  0  0  0  0  0  0  0  0  0  0
   17.5229  -25.5421  -18.6414 O   0  0  0  0  0  0  0  0  0  0  0  0
  1  2  1  0
  1  6  1  0
  2  3  1  0
  3  4  1  0
  4  5  1  0
  5  6  1  0
  6  7  1  6
  7  8  1  0
  8  9  2  0
  8 11  1  0
  9 10  1  0
 10 13  2  0
 11 12  2  0
 12 13  1  0
 13 14  1  0
 14 15  1  0
 14 23  2  0
 15 16  1  0
 15 21  2  0
 16 17  2  0
 16 18  1  0
 18 19  1  0
 19 20  1  0
 21 22  1  0
 22 23  1  0
 23 24  1  0
 24 25  2  0
 24 33  1  0
 25 26  1  0
 26 27  1  0
 26 30  2  0
 27 28  1  1
 27 29  1  0
 30 31  1  0
 30 32  1  0
 32 33  2  0
 33 34  1  0
M  CHG  1   6   1
M  END
$$$$
