
     RDKit          3D

 34 37  0  0  0  0  0  0  0  0999 V2000
   16.9761  -28.3238  -26.7119 C   0  0  0  0  0  0  0  0  0  0  0  0
   17.5706  -28.2649  -28.1238 C   0  0  0  0  0  0  0  0  0  0  0  0
   16.6215  -27.9150  -29.0611 O   0  0  0  0  0  0  0  0  0  0  0  0
   15.4136  -27.5145  -28.5172 C   0  0  0  0  0  0  0  0  0  0  0  0
   14.8178  -28.5077  -27.5695 C   0  0  0  0  0  0  0  0  0  0  0  0
   15.8410  -29.1919  -26.7790 N   0  0  2  0  0  4  0  0  0  0  0  0
   15.2737  -29.5466  -25.5191 C   0  0  0  0  0  0  0  0  0  0  0  0
   15.2596  -28.4461  -24.5378 C   0  0  0  0  0  0  0  0  0  0  0  0
   14.1435  -27.6459  -24.4109 C   0  0  0  0  0  0  0  0  0  0  0  0
   14.0971  -26.5995  -23.4934 C   0  0  0  0  0  0  0  0  0  0  0  0
   16.3289  -28.1652  -23.7162 C   0  0  0  0  0  0  0  0  0  0  0  0
   16.2858  -27.1162  -22.7945 C   0  0  0  0  0  0  0  0  0  0  0  0
   15.1587  -26.3260  -22.6824 C   0  0  0  0  0  0  0  0  0  0  0  0
   15.1479  -25.2458  -21.7126 C   0  0  0  0  0  0  0  0  0  0  0  0
   15.0078  -23.9055  -21.9977 C   0  0  0  0  0  0  0  0  0  0  0  0
   14.8469  -23.3444  -23.3300 C   0  0  0  0  0  0  0  0  0  0  0  0
   15.0879  -23.9677  -24.3763 O   0  0  0  0  0  0  0  0  0  0  0  0
   14.3830  -21.9898  -23.4844 N   0  0  0  0  0  0  0  0  0  0  0  0
   14.0053  -21.4963  -24.7683 C   0  0  0  0  0  0  0  0  0  0  0  0
   12.5546  -21.8272  -25.0896 C   0  0  0  0  0  0  0  0  0  0  0  0
   15.0562  -23.2955  -20.8045 N   0  0  0  0  0  0  0  0  0  0  0  0
   15.2116  -24.1592  -19.8535 O   0  0  0  0  0  0  0  0  0  0  0  0
   15.2777  -25.3985  -20.3379 C   0  0  0  0  0  0  0  0  0  0  0  0
   15.4490  -26.6310  -19.5767 C   0  0  0  0  0  0  0  0  0  0  0  0
   14.6205  -27.7260  -19.6949 C   0  0  0  0  0  0  0  0  0  0  0  0
   14.8064  -28.8824  -18.9601 C   0  0  0  0  0  0  0  0  0  0  0  0
   13.8761  -29.9899  -19.1549 C   0  0  1  0  0  0  0  0  0  0  0  0
   12.6221  -29.8813  -18.3247 C   0  0  0  0  0  0  0  0  0  0  0  0
   13.4375  -30.0099  -20.6069 C   0  0  0  0  0  0  0  0  0  0  0  0
   15.8715  -28.8999  -18.0881 C   0  0  0  0  0  0  0  0  0  0  0  0
   16.0718  -30.0463  -17.3468 O   0  0  0  0  0  0  0  0  0  0  0  0
   16.7142  -27.8154  -17.9529 C   0  0  0  0  0  0  0  0  0  0  0  0
   16.5059  -26.6852  -18.6927 C   0  0  0  0  0  0  0  0  0  0  0  0
   17.3754  -25.6016  -18.5352 O   0  0  0  0  0  0  0  0  0  0  0  0
  1  2  1  1
  1  6  1  0
  2  3  1  6
  4  3  1  1
  5  4  1  1
  5  6  1  0
  6  7  1  1
  7  8  1  6
  8  9  2  0
  8 11  1  0
  9 10  1  0
 10 13  2  0
 11 12  2  0
 12 13  1  0
 13 14  1  0
 14 15  1  0
 14 23  2  0
 15 16  1  0
 15 21  2  0
 16 17  2  0
 16 18  1  0
 19 18  1  1
 20 19  1  6
 21 22  1  0
 22 23  1  0
 23 24  1  0
 24 25  2  0
 24 33  1  0
 25 26  1  0
 27 26  1  6
 26 30  2  0
 28 27  1  6
 29 27  1  6
 30 31  1  0
 30 32  1  0
 32 33  2  0
 33 34  1  0
M  CHG  1   6   1
M  END
$$$$
