
     RDKit          3D

 34 37  0  0  0  0  0  0  0  0999 V2000
   16.9083  -28.3962  -26.8777 C   0  0  0  0  0  0  0  0  0  0  0  0
   17.1860  -28.2732  -28.3805 C   0  0  0  0  0  0  0  0  0  0  0  0
   16.1881  -27.5742  -29.0265 O   0  0  0  0  0  0  0  0  0  0  0  0
   15.2720  -26.9829  -28.1743 C   0  0  0  0  0  0  0  0  0  0  0  0
   14.6480  -27.9345  -27.2023 C   0  0  0  0  0  0  0  0  0  0  0  0
   15.5961  -28.9505  -26.7455 N   0  0  2  0  0  4  0  0  0  0  0  0
   15.2337  -29.3415  -25.4224 C   0  0  0  0  0  0  0  0  0  0  0  0
   15.2139  -28.2300  -24.4538 C   0  0  0  0  0  0  0  0  0  0  0  0
   16.3732  -27.8532  -23.8085 C   0  0  0  0  0  0  0  0  0  0  0  0
   16.3892  -26.8072  -22.8895 C   0  0  0  0  0  0  0  0  0  0  0  0
   14.0700  -27.5256  -24.1494 C   0  0  0  0  0  0  0  0  0  0  0  0
   14.0823  -26.4757  -23.2280 C   0  0  0  0  0  0  0  0  0  0  0  0
   15.2536  -26.1133  -22.5921 C   0  0  0  0  0  0  0  0  0  0  0  0
   15.2302  -25.0162  -21.6417 C   0  0  0  0  0  0  0  0  0  0  0  0
   15.0439  -23.6862  -21.9476 C   0  0  0  0  0  0  0  0  0  0  0  0
   14.8385  -23.1548  -23.2860 C   0  0  0  0  0  0  0  0  0  0  0  0
   15.0280  -23.8070  -24.3252 O   0  0  0  0  0  0  0  0  0  0  0  0
   14.3898  -21.7969  -23.4553 N   0  0  0  0  0  0  0  0  0  0  0  0
   14.0410  -21.3062  -24.7485 C   0  0  0  0  0  0  0  0  0  0  0  0
   12.5334  -21.3101  -24.9598 C   0  0  0  0  0  0  0  0  0  0  0  0
   15.0985  -23.0531  -20.7668 N   0  0  0  0  0  0  0  0  0  0  0  0
   15.2996  -23.8941  -19.8041 O   0  0  0  0  0  0  0  0  0  0  0  0
   15.3931  -25.1396  -20.2676 C   0  0  0  0  0  0  0  0  0  0  0  0
   15.6172  -26.3522  -19.4884 C   0  0  0  0  0  0  0  0  0  0  0  0
   14.7679  -27.4376  -19.4987 C   0  0  0  0  0  0  0  0  0  0  0  0
   15.0051  -28.5750  -18.7493 C   0  0  0  0  0  0  0  0  0  0  0  0
   14.0474  -29.6736  -18.8263 C   0  0  1  0  0  0  0  0  0  0  0  0
   12.7312  -29.3786  -18.1522 C   0  0  0  0  0  0  0  0  0  0  0  0
   13.7379  -29.9505  -20.2853 C   0  0  0  0  0  0  0  0  0  0  0  0
   16.1444  -28.5835  -17.9767 C   0  0  0  0  0  0  0  0  0  0  0  0
   16.3968  -29.7111  -17.2224 O   0  0  0  0  0  0  0  0  0  0  0  0
   17.0094  -27.5085  -17.9504 C   0  0  0  0  0  0  0  0  0  0  0  0
   16.7490  -26.3969  -18.7019 C   0  0  0  0  0  0  0  0  0  0  0  0
   17.6425  -25.3224  -18.6559 O   0  0  0  0  0  0  0  0  0  0  0  0
  1  2  1  1
  1  6  1  0
  2  3  1  6
  4  3  1  1
  5  4  1  1
  5  6  1  0
  6  7  1  1
  7  8  1  6
  8  9  2  0
  8 11  1  0
  9 10  1  0
 10 13  2  0
 11 12  2  0
 12 13  1  0
 13 14  1  0
 14 15  1  0
 14 23  2  0
 15 16  1  0
 15 21  2  0
 16 17  2  0
 16 18  1  0
 19 18  1  1
 20 19  1  6
 21 22  1  0
 22 23  1  0
 23 24  1  0
 24 25  2  0
 24 33  1  0
 25 26  1  0
 27 26  1  6
 26 30  2  0
 28 27  1  6
 29 27  1  6
 30 31  1  0
 30 32  1  0
 32 33  2  0
 33 34  1  0
M  CHG  1   6   1
M  END
$$$$
