
     RDKit          3D

 34 37  0  0  0  0  0  0  0  0999 V2000
   14.8374  -31.0797  -26.0436 C   0  0  0  0  0  0  0  0  0  0  0  0
   14.7641  -32.5321  -25.5583 C   0  0  0  0  0  0  0  0  0  0  0  0
   14.4280  -32.6059  -24.2230 O   0  0  0  0  0  0  0  0  0  0  0  0
   14.0500  -31.3951  -23.6695 C   0  0  0  0  0  0  0  0  0  0  0  0
   15.0560  -30.3034  -23.8580 C   0  0  0  0  0  0  0  0  0  0  0  0
   15.7247  -30.3933  -25.1559 N   0  0  2  0  0  4  0  0  0  0  0  0
   16.0927  -29.0770  -25.5646 C   0  0  0  0  0  0  0  0  0  0  0  0
   15.9013  -28.0512  -24.5229 C   0  0  0  0  0  0  0  0  0  0  0  0
   16.9701  -27.6332  -23.7581 C   0  0  0  0  0  0  0  0  0  0  0  0
   16.8238  -26.6657  -22.7674 C   0  0  0  0  0  0  0  0  0  0  0  0
   14.6799  -27.4692  -24.2642 C   0  0  0  0  0  0  0  0  0  0  0  0
   14.5293  -26.4982  -23.2711 C   0  0  0  0  0  0  0  0  0  0  0  0
   15.6122  -26.0928  -22.5157 C   0  0  0  0  0  0  0  0  0  0  0  0
   15.4198  -25.0802  -21.4935 C   0  0  0  0  0  0  0  0  0  0  0  0
   15.1278  -23.7526  -21.7162 C   0  0  0  0  0  0  0  0  0  0  0  0
   14.9630  -23.1388  -23.0245 C   0  0  0  0  0  0  0  0  0  0  0  0
   15.3984  -23.6300  -24.0782 O   0  0  0  0  0  0  0  0  0  0  0  0
   14.2594  -21.8880  -23.1442 N   0  0  0  0  0  0  0  0  0  0  0  0
   14.0889  -21.2730  -24.4199 C   0  0  0  0  0  0  0  0  0  0  0  0
   13.3696  -19.9363  -24.3043 C   0  0  0  0  0  0  0  0  0  0  0  0
   15.0419  -23.2117  -20.4922 N   0  0  0  0  0  0  0  0  0  0  0  0
   15.2574  -24.1038  -19.5800 O   0  0  0  0  0  0  0  0  0  0  0  0
   15.5009  -25.2956  -20.1234 C   0  0  0  0  0  0  0  0  0  0  0  0
   15.7873  -26.5403  -19.4187 C   0  0  0  0  0  0  0  0  0  0  0  0
   14.9954  -27.6655  -19.4981 C   0  0  0  0  0  0  0  0  0  0  0  0
   15.2910  -28.8328  -18.8185 C   0  0  0  0  0  0  0  0  0  0  0  0
   14.3915  -29.9726  -18.9656 C   0  0  1  0  0  0  0  0  0  0  0  0
   12.9710  -29.6810  -18.5527 C   0  0  0  0  0  0  0  0  0  0  0  0
   14.3471  -30.3743  -20.4277 C   0  0  0  0  0  0  0  0  0  0  0  0
   16.4289  -28.8294  -18.0438 C   0  0  0  0  0  0  0  0  0  0  0  0
   16.7391  -29.9864  -17.3587 O   0  0  0  0  0  0  0  0  0  0  0  0
   17.2370  -27.7147  -17.9491 C   0  0  0  0  0  0  0  0  0  0  0  0
   16.9196  -26.5743  -18.6324 C   0  0  0  0  0  0  0  0  0  0  0  0
   17.7562  -25.4598  -18.5179 O   0  0  0  0  0  0  0  0  0  0  0  0
  1  2  1  1
  1  6  1  0
  2  3  1  6
  4  3  1  1
  5  4  1  1
  5  6  1  0
  6  7  1  6
  7  8  1  6
  8  9  2  0
  8 11  1  0
  9 10  1  0
 10 13  2  0
 11 12  2  0
 12 13  1  0
 13 14  1  0
 14 15  1  0
 14 23  2  0
 15 16  1  0
 15 21  2  0
 16 17  2  0
 16 18  1  0
 19 18  1  1
 20 19  1  6
 21 22  1  0
 22 23  1  0
 23 24  1  0
 24 25  2  0
 24 33  1  0
 25 26  1  0
 27 26  1  6
 26 30  2  0
 28 27  1  6
 29 27  1  6
 30 31  1  0
 30 32  1  0
 32 33  2  0
 33 34  1  0
M  CHG  1   6   1
M  END
$$$$
