
     RDKit          3D

 34 37  0  0  0  0  0  0  0  0999 V2000
   15.1451  -28.6622  -27.7461 C   0  0  0  0  0  0  0  0  0  0  0  0
   15.3495  -29.8598  -28.6335 C   0  0  0  0  0  0  0  0  0  0  0  0
   16.6572  -30.2723  -28.7329 O   0  0  0  0  0  0  0  0  0  0  0  0
   17.5229  -29.6105  -27.8644 C   0  0  0  0  0  0  0  0  0  0  0  0
   16.8791  -29.7270  -26.4770 C   0  0  0  0  0  0  0  0  0  0  0  0
   15.7954  -28.7639  -26.4693 N   0  0  2  0  0  4  0  0  0  0  0  0
   14.8821  -28.9854  -25.3721 C   0  0  0  0  0  0  0  0  0  0  0  0
   15.0208  -27.9390  -24.3198 C   0  0  0  0  0  0  0  0  0  0  0  0
   13.9177  -27.1934  -23.9636 C   0  0  0  0  0  0  0  0  0  0  0  0
   14.0188  -26.2180  -22.9905 C   0  0  0  0  0  0  0  0  0  0  0  0
   16.2092  -27.6729  -23.6727 C   0  0  0  0  0  0  0  0  0  0  0  0
   16.3214  -26.7020  -22.6999 C   0  0  0  0  0  0  0  0  0  0  0  0
   15.2165  -25.9441  -22.3325 C   0  0  0  0  0  0  0  0  0  0  0  0
   15.2940  -24.9189  -21.3076 C   0  0  0  0  0  0  0  0  0  0  0  0
   15.1856  -23.5488  -21.5719 C   0  0  0  0  0  0  0  0  0  0  0  0
   14.9934  -22.9797  -22.8976 C   0  0  0  0  0  0  0  0  0  0  0  0
   15.1816  -23.6270  -23.9347 O   0  0  0  0  0  0  0  0  0  0  0  0
   14.5716  -21.6245  -23.0079 N   0  0  0  0  0  0  0  0  0  0  0  0
   14.2456  -21.0227  -24.2925 C   0  0  0  0  0  0  0  0  0  0  0  0
   12.8074  -20.5502  -24.2789 C   0  0  0  0  0  0  0  0  0  0  0  0
   15.2992  -22.9548  -20.3774 N   0  0  0  0  0  0  0  0  0  0  0  0
   15.4640  -23.8500  -19.4393 O   0  0  0  0  0  0  0  0  0  0  0  0
   15.4682  -25.0676  -19.9562 C   0  0  0  0  0  0  0  0  0  0  0  0
   15.6249  -26.3383  -19.2637 C   0  0  0  0  0  0  0  0  0  0  0  0
   14.8421  -27.4352  -19.4191 C   0  0  0  0  0  0  0  0  0  0  0  0
   15.0565  -28.6213  -18.7184 C   0  0  0  0  0  0  0  0  0  0  0  0
   14.1743  -29.8080  -18.9148 C   0  0  1  0  0  0  0  0  0  0  0  0
   13.0189  -29.7829  -17.9268 C   0  0  0  0  0  0  0  0  0  0  0  0
   13.7225  -29.8299  -20.3458 C   0  0  0  0  0  0  0  0  0  0  0  0
   16.1184  -28.6647  -17.8293 C   0  0  0  0  0  0  0  0  0  0  0  0
   16.3292  -29.8512  -17.1314 O   0  0  0  0  0  0  0  0  0  0  0  0
   16.9416  -27.5827  -17.6340 C   0  0  0  0  0  0  0  0  0  0  0  0
   16.6823  -26.4458  -18.3499 C   0  0  0  0  0  0  0  0  0  0  0  0
   17.5307  -25.3504  -18.1402 O   0  0  0  0  0  0  0  0  0  0  0  0
  1  2  1  0
  1  6  1  0
  2  3  1  0
  3  4  1  0
  4  5  1  0
  5  6  1  0
  6  7  1  1
  7  8  1  0
  8  9  2  0
  8 11  1  0
  9 10  1  0
 10 13  2  0
 11 12  2  0
 12 13  1  0
 13 14  1  0
 14 15  1  0
 14 23  2  0
 15 16  1  0
 15 21  2  0
 16 17  2  0
 16 18  1  0
 18 19  1  0
 19 20  1  0
 21 22  1  0
 22 23  1  0
 23 24  1  0
 24 25  2  0
 24 33  1  0
 25 26  1  0
 26 27  1  0
 26 30  2  0
 27 28  1  1
 27 29  1  0
 30 31  1  0
 30 32  1  0
 32 33  2  0
 33 34  1  0
M  CHG  1   6   1
M  END
$$$$
