
     RDKit          3D

 34 37  0  0  0  0  0  0  0  0999 V2000
   16.2918  -29.0838  -27.5319 C   0  0  0  0  0  0  0  0  0  0  0  0
   16.1883  -30.2471  -28.4803 C   0  0  0  0  0  0  0  0  0  0  0  0
   16.9231  -31.3474  -28.1066 O   0  0  0  0  0  0  0  0  0  0  0  0
   17.4908  -31.2399  -26.8386 C   0  0  0  0  0  0  0  0  0  0  0  0
   16.3383  -30.8461  -25.9061 C   0  0  0  0  0  0  0  0  0  0  0  0
   16.1035  -29.4367  -26.1522 N   0  0  2  0  0  4  0  0  0  0  0  0
   14.8387  -28.9959  -25.6109 C   0  0  0  0  0  0  0  0  0  0  0  0
   15.0231  -27.9776  -24.5383 C   0  0  0  0  0  0  0  0  0  0  0  0
   13.9390  -27.2349  -24.1227 C   0  0  0  0  0  0  0  0  0  0  0  0
   14.0826  -26.2853  -23.1296 C   0  0  0  0  0  0  0  0  0  0  0  0
   16.2364  -27.7351  -23.9290 C   0  0  0  0  0  0  0  0  0  0  0  0
   16.3910  -26.7901  -22.9368 C   0  0  0  0  0  0  0  0  0  0  0  0
   15.3055  -26.0354  -22.5097 C   0  0  0  0  0  0  0  0  0  0  0  0
   15.4277  -25.0372  -21.4627 C   0  0  0  0  0  0  0  0  0  0  0  0
   15.3529  -23.6588  -21.6932 C   0  0  0  0  0  0  0  0  0  0  0  0
   15.1550  -23.0534  -23.0020 C   0  0  0  0  0  0  0  0  0  0  0  0
   15.3495  -23.6687  -24.0573 O   0  0  0  0  0  0  0  0  0  0  0  0
   14.7202  -21.6998  -23.0731 N   0  0  0  0  0  0  0  0  0  0  0  0
   14.4738  -21.0371  -24.3454 C   0  0  0  0  0  0  0  0  0  0  0  0
   13.0110  -20.6594  -24.4438 C   0  0  0  0  0  0  0  0  0  0  0  0
   15.5019  -23.0966  -20.4874 N   0  0  0  0  0  0  0  0  0  0  0  0
   15.6571  -24.0178  -19.5732 O   0  0  0  0  0  0  0  0  0  0  0  0
   15.6194  -25.2225  -20.1182 C   0  0  0  0  0  0  0  0  0  0  0  0
   15.7522  -26.5131  -19.4581 C   0  0  0  0  0  0  0  0  0  0  0  0
   14.9267  -27.5784  -19.6121 C   0  0  0  0  0  0  0  0  0  0  0  0
   15.1204  -28.7865  -18.9438 C   0  0  0  0  0  0  0  0  0  0  0  0
   14.1911  -29.9372  -19.1375 C   0  0  1  0  0  0  0  0  0  0  0  0
   13.0412  -29.8670  -18.1453 C   0  0  0  0  0  0  0  0  0  0  0  0
   13.7334  -29.9402  -20.5669 C   0  0  0  0  0  0  0  0  0  0  0  0
   16.2067  -28.8866  -18.0897 C   0  0  0  0  0  0  0  0  0  0  0  0
   16.3968  -30.0950  -17.4241 O   0  0  0  0  0  0  0  0  0  0  0  0
   17.0733  -27.8385  -17.8974 C   0  0  0  0  0  0  0  0  0  0  0  0
   16.8326  -26.6776  -18.5804 C   0  0  0  0  0  0  0  0  0  0  0  0
   17.7254  -25.6173  -18.3743 O   0  0  0  0  0  0  0  0  0  0  0  0
  1  2  1  0
  1  6  1  0
  2  3  1  0
  3  4  1  0
  4  5  1  0
  5  6  1  0
  6  7  1  6
  7  8  1  0
  8  9  2  0
  8 11  1  0
  9 10  1  0
 10 13  2  0
 11 12  2  0
 12 13  1  0
 13 14  1  0
 14 15  1  0
 14 23  2  0
 15 16  1  0
 15 21  2  0
 16 17  2  0
 16 18  1  0
 18 19  1  0
 19 20  1  0
 21 22  1  0
 22 23  1  0
 23 24  1  0
 24 25  2  0
 24 33  1  0
 25 26  1  0
 26 27  1  0
 26 30  2  0
 27 28  1  1
 27 29  1  0
 30 31  1  0
 30 32  1  0
 32 33  2  0
 33 34  1  0
M  CHG  1   6   1
M  END
$$$$
