
     RDKit          3D

 34 37  0  0  0  0  0  0  0  0999 V2000
   16.0102  -27.4712  -26.5547 C   0  0  0  0  0  0  0  0  0  0  0  0
   15.2185  -26.7259  -27.5946 C   0  0  0  0  0  0  0  0  0  0  0  0
   15.1454  -27.3616  -28.8115 O   0  0  0  0  0  0  0  0  0  0  0  0
   15.6741  -28.6508  -28.8048 C   0  0  0  0  0  0  0  0  0  0  0  0
   14.9996  -29.3639  -27.6261 C   0  0  0  0  0  0  0  0  0  0  0  0
   15.6591  -28.8593  -26.4376 N   0  0  2  0  0  4  0  0  0  0  0  0
   14.9198  -29.1685  -25.2356 C   0  0  0  0  0  0  0  0  0  0  0  0
   15.0556  -28.0927  -24.2130 C   0  0  0  0  0  0  0  0  0  0  0  0
   13.9439  -27.3604  -23.8558 C   0  0  0  0  0  0  0  0  0  0  0  0
   14.0422  -26.3584  -22.9099 C   0  0  0  0  0  0  0  0  0  0  0  0
   16.2496  -27.7861  -23.5947 C   0  0  0  0  0  0  0  0  0  0  0  0
   16.3590  -26.7883  -22.6492 C   0  0  0  0  0  0  0  0  0  0  0  0
   15.2455  -26.0436  -22.2810 C   0  0  0  0  0  0  0  0  0  0  0  0
   15.3201  -24.9909  -21.2841 C   0  0  0  0  0  0  0  0  0  0  0  0
   15.1849  -23.6301  -21.5821 C   0  0  0  0  0  0  0  0  0  0  0  0
   14.9645  -23.0989  -22.9191 C   0  0  0  0  0  0  0  0  0  0  0  0
   15.1455  -23.7710  -23.9417 O   0  0  0  0  0  0  0  0  0  0  0  0
   14.5227  -21.7529  -23.0584 N   0  0  0  0  0  0  0  0  0  0  0  0
   14.1074  -21.2088  -24.3429 C   0  0  0  0  0  0  0  0  0  0  0  0
   12.6821  -20.7082  -24.2429 C   0  0  0  0  0  0  0  0  0  0  0  0
   15.3052  -23.0035  -20.4051 N   0  0  0  0  0  0  0  0  0  0  0  0
   15.4982  -23.8711  -19.4467 O   0  0  0  0  0  0  0  0  0  0  0  0
   15.5157  -25.1015  -19.9320 C   0  0  0  0  0  0  0  0  0  0  0  0
   15.7036  -26.3510  -19.2093 C   0  0  0  0  0  0  0  0  0  0  0  0
   14.9557  -27.4743  -19.3471 C   0  0  0  0  0  0  0  0  0  0  0  0
   15.1986  -28.6373  -18.6176 C   0  0  0  0  0  0  0  0  0  0  0  0
   14.3545  -29.8543  -18.7953 C   0  0  1  0  0  0  0  0  0  0  0  0
   13.1207  -29.7816  -17.9098 C   0  0  0  0  0  0  0  0  0  0  0  0
   14.0237  -29.9919  -20.2527 C   0  0  0  0  0  0  0  0  0  0  0  0
   16.2522  -28.6285  -17.7178 C   0  0  0  0  0  0  0  0  0  0  0  0
   16.4915  -29.7921  -16.9911 O   0  0  0  0  0  0  0  0  0  0  0  0
   17.0404  -27.5179  -17.5394 C   0  0  0  0  0  0  0  0  0  0  0  0
   16.7543  -26.4059  -18.2833 C   0  0  0  0  0  0  0  0  0  0  0  0
   17.5673  -25.2808  -18.0906 O   0  0  0  0  0  0  0  0  0  0  0  0
  1  2  1  0
  1  6  1  0
  2  3  1  0
  3  4  1  0
  4  5  1  0
  5  6  1  0
  6  7  1  1
  7  8  1  0
  8  9  2  0
  8 11  1  0
  9 10  1  0
 10 13  2  0
 11 12  2  0
 12 13  1  0
 13 14  1  0
 14 15  1  0
 14 23  2  0
 15 16  1  0
 15 21  2  0
 16 17  2  0
 16 18  1  0
 18 19  1  0
 19 20  1  0
 21 22  1  0
 22 23  1  0
 23 24  1  0
 24 25  2  0
 24 33  1  0
 25 26  1  0
 26 27  1  0
 26 30  2  0
 27 28  1  1
 27 29  1  0
 30 31  1  0
 30 32  1  0
 32 33  2  0
 33 34  1  0
M  CHG  1   6   1
M  END
$$$$
