
     RDKit          3D

 34 37  0  0  0  0  0  0  0  0999 V2000
   16.4259  -28.1952  -27.0327 C   0  0  0  0  0  0  0  0  0  0  0  0
   16.2759  -28.0621  -28.5526 C   0  0  0  0  0  0  0  0  0  0  0  0
   15.0361  -27.5683  -28.9001 O   0  0  0  0  0  0  0  0  0  0  0  0
   14.2835  -27.1285  -27.8252 C   0  0  0  0  0  0  0  0  0  0  0  0
   14.1144  -28.1516  -26.7461 C   0  0  0  0  0  0  0  0  0  0  0  0
   15.3142  -28.9708  -26.5756 N   0  0  2  0  0  4  0  0  0  0  0  0
   15.3848  -29.3871  -25.2130 C   0  0  0  0  0  0  0  0  0  0  0  0
   15.3203  -28.2776  -24.2439 C   0  0  0  0  0  0  0  0  0  0  0  0
   16.4065  -27.9940  -23.4429 C   0  0  0  0  0  0  0  0  0  0  0  0
   16.3790  -26.9528  -22.5187 C   0  0  0  0  0  0  0  0  0  0  0  0
   14.2043  -27.4850  -24.0903 C   0  0  0  0  0  0  0  0  0  0  0  0
   14.1730  -26.4395  -23.1642 C   0  0  0  0  0  0  0  0  0  0  0  0
   15.2714  -26.1712  -22.3710 C   0  0  0  0  0  0  0  0  0  0  0  0
   15.2047  -25.0759  -21.4206 C   0  0  0  0  0  0  0  0  0  0  0  0
   15.0358  -23.7449  -21.7323 C   0  0  0  0  0  0  0  0  0  0  0  0
   14.8958  -23.2105  -23.0779 C   0  0  0  0  0  0  0  0  0  0  0  0
   15.3513  -23.7632  -24.0920 O   0  0  0  0  0  0  0  0  0  0  0  0
   14.1945  -21.9699  -23.2854 N   0  0  0  0  0  0  0  0  0  0  0  0
   14.1965  -21.3433  -24.5669 C   0  0  0  0  0  0  0  0  0  0  0  0
   13.1565  -20.2346  -24.6485 C   0  0  0  0  0  0  0  0  0  0  0  0
   15.0351  -23.1142  -20.5490 N   0  0  0  0  0  0  0  0  0  0  0  0
   15.1881  -23.9574  -19.5794 O   0  0  0  0  0  0  0  0  0  0  0  0
   15.3013  -25.2022  -20.0404 C   0  0  0  0  0  0  0  0  0  0  0  0
   15.4854  -26.4168  -19.2539 C   0  0  0  0  0  0  0  0  0  0  0  0
   14.6786  -27.5289  -19.3613 C   0  0  0  0  0  0  0  0  0  0  0  0
   14.8764  -28.6676  -18.6023 C   0  0  0  0  0  0  0  0  0  0  0  0
   13.9689  -29.7956  -18.7873 C   0  0  1  0  0  0  0  0  0  0  0  0
   12.5589  -29.5206  -18.3294 C   0  0  0  0  0  0  0  0  0  0  0  0
   13.8913  -30.1227  -20.2665 C   0  0  0  0  0  0  0  0  0  0  0  0
   15.9305  -28.6490  -17.7172 C   0  0  0  0  0  0  0  0  0  0  0  0
   16.1424  -29.7774  -16.9518 O   0  0  0  0  0  0  0  0  0  0  0  0
   16.7516  -27.5468  -17.5924 C   0  0  0  0  0  0  0  0  0  0  0  0
   16.5320  -26.4348  -18.3562 C   0  0  0  0  0  0  0  0  0  0  0  0
   17.3795  -25.3325  -18.2088 O   0  0  0  0  0  0  0  0  0  0  0  0
  1  2  1  1
  1  6  1  0
  2  3  1  6
  4  3  1  1
  5  4  1  1
  5  6  1  0
  6  7  1  1
  7  8  1  6
  8  9  2  0
  8 11  1  0
  9 10  1  0
 10 13  2  0
 11 12  2  0
 12 13  1  0
 13 14  1  0
 14 15  1  0
 14 23  2  0
 15 16  1  0
 15 21  2  0
 16 17  2  0
 16 18  1  0
 19 18  1  1
 20 19  1  6
 21 22  1  0
 22 23  1  0
 23 24  1  0
 24 25  2  0
 24 33  1  0
 25 26  1  0
 27 26  1  6
 26 30  2  0
 28 27  1  6
 29 27  1  6
 30 31  1  0
 30 32  1  0
 32 33  2  0
 33 34  1  0
M  CHG  1   6   1
M  END
$$$$
