
     RDKit          3D

 34 37  0  0  0  0  0  0  0  0999 V2000
   15.3586  -31.3558  -26.1448 C   0  0  0  0  0  0  0  0  0  0  0  0
   14.1032  -32.1105  -25.8016 C   0  0  0  0  0  0  0  0  0  0  0  0
   14.0329  -32.5236  -24.4921 O   0  0  0  0  0  0  0  0  0  0  0  0
   15.0558  -32.0230  -23.6891 C   0  0  0  0  0  0  0  0  0  0  0  0
   15.0548  -30.5070  -23.9226 C   0  0  0  0  0  0  0  0  0  0  0  0
   15.6854  -30.3120  -25.2135 N   0  0  2  0  0  4  0  0  0  0  0  0
   15.4576  -28.9831  -25.7321 C   0  0  0  0  0  0  0  0  0  0  0  0
   15.3488  -27.9760  -24.6388 C   0  0  0  0  0  0  0  0  0  0  0  0
   16.4576  -27.6962  -23.8696 C   0  0  0  0  0  0  0  0  0  0  0  0
   16.3840  -26.7663  -22.8506 C   0  0  0  0  0  0  0  0  0  0  0  0
   14.1828  -27.2979  -24.3512 C   0  0  0  0  0  0  0  0  0  0  0  0
   14.0981  -26.3677  -23.3368 C   0  0  0  0  0  0  0  0  0  0  0  0
   15.2092  -26.0774  -22.5548 C   0  0  0  0  0  0  0  0  0  0  0  0
   15.1607  -25.0988  -21.4835 C   0  0  0  0  0  0  0  0  0  0  0  0
   15.0058  -23.7241  -21.6957 C   0  0  0  0  0  0  0  0  0  0  0  0
   14.8849  -23.1028  -23.0064 C   0  0  0  0  0  0  0  0  0  0  0  0
   14.9811  -23.7443  -24.0596 O   0  0  0  0  0  0  0  0  0  0  0  0
   14.6462  -21.7015  -23.0819 N   0  0  0  0  0  0  0  0  0  0  0  0
   13.9205  -21.1039  -24.1931 C   0  0  0  0  0  0  0  0  0  0  0  0
   12.7779  -22.0112  -24.5971 C   0  0  0  0  0  0  0  0  0  0  0  0
   15.0016  -23.1822  -20.4715 N   0  0  0  0  0  0  0  0  0  0  0  0
   15.1396  -24.1120  -19.5632 O   0  0  0  0  0  0  0  0  0  0  0  0
   15.2412  -25.3027  -20.1305 C   0  0  0  0  0  0  0  0  0  0  0  0
   15.4077  -26.5961  -19.4837 C   0  0  0  0  0  0  0  0  0  0  0  0
   14.6024  -27.6766  -19.6384 C   0  0  0  0  0  0  0  0  0  0  0  0
   14.8281  -28.8865  -18.9834 C   0  0  0  0  0  0  0  0  0  0  0  0
   13.9204  -30.0542  -19.1775 C   0  0  1  0  0  0  0  0  0  0  0  0
   12.5841  -29.8102  -18.4946 C   0  0  0  0  0  0  0  0  0  0  0  0
   13.7886  -30.3113  -20.6503 C   0  0  0  0  0  0  0  0  0  0  0  0
   15.9258  -28.9719  -18.1422 C   0  0  0  0  0  0  0  0  0  0  0  0
   16.1478  -30.1821  -17.4899 O   0  0  0  0  0  0  0  0  0  0  0  0
   16.7729  -27.9079  -17.9498 C   0  0  0  0  0  0  0  0  0  0  0  0
   16.5010  -26.7462  -18.6195 C   0  0  0  0  0  0  0  0  0  0  0  0
   17.3741  -25.6697  -18.4135 O   0  0  0  0  0  0  0  0  0  0  0  0
  1  2  1  0
  1  6  1  0
  2  3  1  0
  3  4  1  0
  4  5  1  0
  5  6  1  0
  6  7  1  6
  7  8  1  0
  8  9  2  0
  8 11  1  0
  9 10  1  0
 10 13  2  0
 11 12  2  0
 12 13  1  0
 13 14  1  0
 14 15  1  0
 14 23  2  0
 15 16  1  0
 15 21  2  0
 16 17  2  0
 16 18  1  0
 18 19  1  0
 19 20  1  0
 21 22  1  0
 22 23  1  0
 23 24  1  0
 24 25  2  0
 24 33  1  0
 25 26  1  0
 26 27  1  0
 26 30  2  0
 27 28  1  6
 27 29  1  0
 30 31  1  0
 30 32  1  0
 32 33  2  0
 33 34  1  0
M  CHG  1   6   1
M  END
$$$$
