
     RDKit          3D

 34 37  0  0  0  0  0  0  0  0999 V2000
   14.1803  -30.0321  -25.5095 C   0  0  0  0  0  0  0  0  0  0  0  0
   13.6655  -31.4762  -25.5013 C   0  0  0  0  0  0  0  0  0  0  0  0
   14.1898  -32.1971  -24.4492 O   0  0  0  0  0  0  0  0  0  0  0  0
   14.8976  -31.4316  -23.5391 C   0  0  0  0  0  0  0  0  0  0  0  0
   15.9861  -30.6106  -24.1562 C   0  0  0  0  0  0  0  0  0  0  0  0
   15.6086  -30.1039  -25.4755 N   0  0  2  0  0  4  0  0  0  0  0  0
   16.2832  -28.8658  -25.6918 C   0  0  0  0  0  0  0  0  0  0  0  0
   16.0151  -27.8492  -24.6579 C   0  0  0  0  0  0  0  0  0  0  0  0
   17.0427  -27.3766  -23.8688 C   0  0  0  0  0  0  0  0  0  0  0  0
   16.8238  -26.4161  -22.8846 C   0  0  0  0  0  0  0  0  0  0  0  0
   14.7601  -27.3293  -24.4303 C   0  0  0  0  0  0  0  0  0  0  0  0
   14.5367  -26.3656  -23.4439 C   0  0  0  0  0  0  0  0  0  0  0  0
   15.5791  -25.9048  -22.6638 C   0  0  0  0  0  0  0  0  0  0  0  0
   15.3113  -24.9016  -21.6493 C   0  0  0  0  0  0  0  0  0  0  0  0
   14.9984  -23.5805  -21.8822 C   0  0  0  0  0  0  0  0  0  0  0  0
   14.8843  -22.9652  -23.1952 C   0  0  0  0  0  0  0  0  0  0  0  0
   15.3413  -23.4659  -24.2353 O   0  0  0  0  0  0  0  0  0  0  0  0
   14.2086  -21.7013  -23.3365 N   0  0  0  0  0  0  0  0  0  0  0  0
   13.9637  -21.1525  -24.6302 C   0  0  0  0  0  0  0  0  0  0  0  0
   12.6083  -21.5838  -25.1728 C   0  0  0  0  0  0  0  0  0  0  0  0
   14.8383  -23.0471  -20.6624 N   0  0  0  0  0  0  0  0  0  0  0  0
   15.0296  -23.9377  -19.7433 O   0  0  0  0  0  0  0  0  0  0  0  0
   15.3290  -25.1209  -20.2775 C   0  0  0  0  0  0  0  0  0  0  0  0
   15.6100  -26.3613  -19.5633 C   0  0  0  0  0  0  0  0  0  0  0  0
   14.8283  -27.4926  -19.6553 C   0  0  0  0  0  0  0  0  0  0  0  0
   15.1186  -28.6556  -18.9662 C   0  0  0  0  0  0  0  0  0  0  0  0
   14.2307  -29.8025  -19.1281 C   0  0  1  0  0  0  0  0  0  0  0  0
   12.9020  -29.6433  -18.4334 C   0  0  0  0  0  0  0  0  0  0  0  0
   13.9322  -29.9846  -20.6042 C   0  0  0  0  0  0  0  0  0  0  0  0
   16.2403  -28.6415  -18.1684 C   0  0  0  0  0  0  0  0  0  0  0  0
   16.5450  -29.7940  -17.4735 O   0  0  0  0  0  0  0  0  0  0  0  0
   17.0380  -27.5204  -18.0606 C   0  0  0  0  0  0  0  0  0  0  0  0
   16.7263  -26.3845  -18.7539 C   0  0  0  0  0  0  0  0  0  0  0  0
   17.5521  -25.2635  -18.6258 O   0  0  0  0  0  0  0  0  0  0  0  0
  1  2  1  1
  1  6  1  0
  2  3  1  6
  4  3  1  1
  5  4  1  1
  5  6  1  0
  6  7  1  1
  7  8  1  6
  8  9  2  0
  8 11  1  0
  9 10  1  0
 10 13  2  0
 11 12  2  0
 12 13  1  0
 13 14  1  0
 14 15  1  0
 14 23  2  0
 15 16  1  0
 15 21  2  0
 16 17  2  0
 16 18  1  0
 19 18  1  1
 20 19  1  6
 21 22  1  0
 22 23  1  0
 23 24  1  0
 24 25  2  0
 24 33  1  0
 25 26  1  0
 27 26  1  6
 26 30  2  0
 28 27  1  6
 29 27  1  6
 30 31  1  0
 30 32  1  0
 32 33  2  0
 33 34  1  0
M  CHG  1   6   1
M  END
$$$$
