
     RDKit          3D

 34 37  0  0  0  0  0  0  0  0999 V2000
   15.1858  -30.7737  -24.0961 C   0  0  0  0  0  0  0  0  0  0  0  0
   15.7351  -32.2040  -24.0424 C   0  0  0  0  0  0  0  0  0  0  0  0
   17.0936  -32.2363  -24.2773 O   0  0  0  0  0  0  0  0  0  0  0  0
   17.6880  -30.9873  -24.3185 C   0  0  0  0  0  0  0  0  0  0  0  0
   17.0490  -30.0450  -25.2898 C   0  0  0  0  0  0  0  0  0  0  0  0
   15.5981  -30.2211  -25.3496 N   0  0  2  0  0  4  0  0  0  0  0  0
   15.0060  -28.9669  -25.6833 C   0  0  0  0  0  0  0  0  0  0  0  0
   15.0840  -27.9626  -24.6065 C   0  0  0  0  0  0  0  0  0  0  0  0
   16.2882  -27.7060  -23.9850 C   0  0  0  0  0  0  0  0  0  0  0  0
   16.3964  -26.7633  -22.9659 C   0  0  0  0  0  0  0  0  0  0  0  0
   13.9904  -27.2449  -24.1749 C   0  0  0  0  0  0  0  0  0  0  0  0
   14.0953  -26.2983  -23.1527 C   0  0  0  0  0  0  0  0  0  0  0  0
   15.3104  -26.0555  -22.5428 C   0  0  0  0  0  0  0  0  0  0  0  0
   15.3834  -25.0635  -21.4853 C   0  0  0  0  0  0  0  0  0  0  0  0
   15.2592  -23.7011  -21.6457 C   0  0  0  0  0  0  0  0  0  0  0  0
   15.0332  -23.0235  -22.9127 C   0  0  0  0  0  0  0  0  0  0  0  0
   15.1796  -23.5634  -24.0211 O   0  0  0  0  0  0  0  0  0  0  0  0
   14.6145  -21.6457  -22.9223 N   0  0  0  0  0  0  0  0  0  0  0  0
   14.3207  -20.9873  -24.1532 C   0  0  0  0  0  0  0  0  0  0  0  0
   13.7823  -19.5825  -23.9209 C   0  0  0  0  0  0  0  0  0  0  0  0
   15.3930  -23.1981  -20.4099 N   0  0  0  0  0  0  0  0  0  0  0  0
   15.5835  -24.1438  -19.5475 O   0  0  0  0  0  0  0  0  0  0  0  0
   15.5907  -25.3374  -20.1392 C   0  0  0  0  0  0  0  0  0  0  0  0
   15.7768  -26.6344  -19.4981 C   0  0  0  0  0  0  0  0  0  0  0  0
   14.9104  -27.6954  -19.6495 C   0  0  0  0  0  0  0  0  0  0  0  0
   15.1116  -28.9147  -19.0292 C   0  0  0  0  0  0  0  0  0  0  0  0
   14.1380  -29.9791  -19.2507 C   0  0  1  0  0  0  0  0  0  0  0  0
   12.8986  -29.8534  -18.4013 C   0  0  0  0  0  0  0  0  0  0  0  0
   13.6825  -29.9314  -20.6968 C   0  0  0  0  0  0  0  0  0  0  0  0
   16.2323  -29.0320  -18.2386 C   0  0  0  0  0  0  0  0  0  0  0  0
   16.4486  -30.2422  -17.6120 O   0  0  0  0  0  0  0  0  0  0  0  0
   17.1139  -27.9833  -18.0721 C   0  0  0  0  0  0  0  0  0  0  0  0
   16.8892  -26.7891  -18.6980 C   0  0  0  0  0  0  0  0  0  0  0  0
   17.7989  -25.7438  -18.5113 O   0  0  0  0  0  0  0  0  0  0  0  0
  1  2  1  1
  1  6  1  0
  2  3  1  6
  4  3  1  1
  5  4  1  1
  5  6  1  0
  6  7  1  1
  7  8  1  6
  8  9  2  0
  8 11  1  0
  9 10  1  0
 10 13  2  0
 11 12  2  0
 12 13  1  0
 13 14  1  0
 14 15  1  0
 14 23  2  0
 15 16  1  0
 15 21  2  0
 16 17  2  0
 16 18  1  0
 19 18  1  1
 20 19  1  6
 21 22  1  0
 22 23  1  0
 23 24  1  0
 24 25  2  0
 24 33  1  0
 25 26  1  0
 27 26  1  1
 26 30  2  0
 28 27  1  6
 29 27  1  6
 30 31  1  0
 30 32  1  0
 32 33  2  0
 33 34  1  0
M  CHG  1   6   1
M  END
$$$$
