
     RDKit          3D

 34 37  0  0  0  0  0  0  0  0999 V2000
   15.1297  -29.4122  -27.7697 C   0  0  0  0  0  0  0  0  0  0  0  0
   16.3754  -29.7399  -28.5471 C   0  0  0  0  0  0  0  0  0  0  0  0
   17.0803  -28.6394  -28.9741 O   0  0  0  0  0  0  0  0  0  0  0  0
   16.6018  -27.4335  -28.4658 C   0  0  0  0  0  0  0  0  0  0  0  0
   16.5142  -27.6350  -26.9477 C   0  0  0  0  0  0  0  0  0  0  0  0
   15.3287  -28.4408  -26.7304 N   0  0  2  0  0  4  0  0  0  0  0  0
   15.2925  -29.0029  -25.4000 C   0  0  0  0  0  0  0  0  0  0  0  0
   15.3105  -27.9422  -24.3530 C   0  0  0  0  0  0  0  0  0  0  0  0
   14.1380  -27.2912  -24.0352 C   0  0  0  0  0  0  0  0  0  0  0  0
   14.1270  -26.3050  -23.0678 C   0  0  0  0  0  0  0  0  0  0  0  0
   16.4523  -27.5719  -23.6740 C   0  0  0  0  0  0  0  0  0  0  0  0
   16.4527  -26.5892  -22.7066 C   0  0  0  0  0  0  0  0  0  0  0  0
   15.2770  -25.9261  -22.3777 C   0  0  0  0  0  0  0  0  0  0  0  0
   15.2367  -24.8920  -21.3596 C   0  0  0  0  0  0  0  0  0  0  0  0
   15.0645  -23.5321  -21.6424 C   0  0  0  0  0  0  0  0  0  0  0  0
   14.9153  -22.9832  -22.9821 C   0  0  0  0  0  0  0  0  0  0  0  0
   15.3019  -23.5803  -23.9940 O   0  0  0  0  0  0  0  0  0  0  0  0
   14.3000  -21.7089  -23.1367 N   0  0  0  0  0  0  0  0  0  0  0  0
   14.0810  -21.1146  -24.4472 C   0  0  0  0  0  0  0  0  0  0  0  0
   12.6087  -20.8098  -24.6246 C   0  0  0  0  0  0  0  0  0  0  0  0
   15.0754  -22.9254  -20.4490 N   0  0  0  0  0  0  0  0  0  0  0  0
   15.2381  -23.8038  -19.4948 O   0  0  0  0  0  0  0  0  0  0  0  0
   15.3421  -25.0222  -19.9993 C   0  0  0  0  0  0  0  0  0  0  0  0
   15.5325  -26.2774  -19.2872 C   0  0  0  0  0  0  0  0  0  0  0  0
   14.7961  -27.4057  -19.4453 C   0  0  0  0  0  0  0  0  0  0  0  0
   15.0407  -28.5740  -18.7249 C   0  0  0  0  0  0  0  0  0  0  0  0
   14.2094  -29.7964  -18.9249 C   0  0  1  0  0  0  0  0  0  0  0  0
   13.0288  -29.8010  -17.9669 C   0  0  0  0  0  0  0  0  0  0  0  0
   13.7958  -29.8565  -20.3664 C   0  0  0  0  0  0  0  0  0  0  0  0
   16.0836  -28.5655  -17.8128 C   0  0  0  0  0  0  0  0  0  0  0  0
   16.3247  -29.7344  -17.0953 O   0  0  0  0  0  0  0  0  0  0  0  0
   16.8600  -27.4500  -17.6138 C   0  0  0  0  0  0  0  0  0  0  0  0
   16.5728  -26.3328  -18.3496 C   0  0  0  0  0  0  0  0  0  0  0  0
   17.3736  -25.2028  -18.1359 O   0  0  0  0  0  0  0  0  0  0  0  0
  1  2  1  0
  1  6  1  0
  2  3  1  0
  3  4  1  0
  4  5  1  0
  5  6  1  0
  6  7  1  1
  7  8  1  0
  8  9  2  0
  8 11  1  0
  9 10  1  0
 10 13  2  0
 11 12  2  0
 12 13  1  0
 13 14  1  0
 14 15  1  0
 14 23  2  0
 15 16  1  0
 15 21  2  0
 16 17  2  0
 16 18  1  0
 18 19  1  0
 19 20  1  0
 21 22  1  0
 22 23  1  0
 23 24  1  0
 24 25  2  0
 24 33  1  0
 25 26  1  0
 26 27  1  0
 26 30  2  0
 27 28  1  1
 27 29  1  0
 30 31  1  0
 30 32  1  0
 32 33  2  0
 33 34  1  0
M  CHG  1   6   1
M  END
$$$$
