
     RDKit          3D

 34 37  0  0  0  0  0  0  0  0999 V2000
   16.5630  -28.3458  -26.6398 C   0  0  0  0  0  0  0  0  0  0  0  0
   17.2848  -28.3669  -27.9921 C   0  0  0  0  0  0  0  0  0  0  0  0
   16.3936  -28.3701  -29.0444 O   0  0  0  0  0  0  0  0  0  0  0  0
   15.0777  -28.1641  -28.6687 C   0  0  0  0  0  0  0  0  0  0  0  0
   14.5929  -29.1132  -27.6180 C   0  0  0  0  0  0  0  0  0  0  0  0
   15.6394  -29.4382  -26.6490 N   0  0  2  0  0  4  0  0  0  0  0  0
   15.0200  -29.7189  -25.3950 C   0  0  0  0  0  0  0  0  0  0  0  0
   15.0403  -28.5869  -24.4505 C   0  0  0  0  0  0  0  0  0  0  0  0
   13.8889  -27.8680  -24.2064 C   0  0  0  0  0  0  0  0  0  0  0  0
   13.8736  -26.7946  -23.3196 C   0  0  0  0  0  0  0  0  0  0  0  0
   16.1772  -28.1966  -23.7778 C   0  0  0  0  0  0  0  0  0  0  0  0
   16.1656  -27.1202  -22.8873 C   0  0  0  0  0  0  0  0  0  0  0  0
   15.0022  -26.4127  -22.6563 C   0  0  0  0  0  0  0  0  0  0  0  0
   15.0259  -25.3010  -21.7230 C   0  0  0  0  0  0  0  0  0  0  0  0
   14.8501  -23.9730  -22.0437 C   0  0  0  0  0  0  0  0  0  0  0  0
   14.6103  -23.4590  -23.3831 C   0  0  0  0  0  0  0  0  0  0  0  0
   14.7872  -24.1198  -24.4191 O   0  0  0  0  0  0  0  0  0  0  0  0
   14.1399  -22.1091  -23.5575 N   0  0  0  0  0  0  0  0  0  0  0  0
   13.7940  -21.6253  -24.8540 C   0  0  0  0  0  0  0  0  0  0  0  0
   12.3872  -21.0441  -24.8768 C   0  0  0  0  0  0  0  0  0  0  0  0
   14.9521  -23.3230  -20.8753 N   0  0  0  0  0  0  0  0  0  0  0  0
   15.1710  -24.1522  -19.9063 O   0  0  0  0  0  0  0  0  0  0  0  0
   15.2307  -25.4059  -20.3529 C   0  0  0  0  0  0  0  0  0  0  0  0
   15.4610  -26.6099  -19.5622 C   0  0  0  0  0  0  0  0  0  0  0  0
   14.6106  -27.6944  -19.5521 C   0  0  0  0  0  0  0  0  0  0  0  0
   14.8540  -28.8236  -18.7922 C   0  0  0  0  0  0  0  0  0  0  0  0
   13.8944  -29.9219  -18.8476 C   0  0  1  0  0  0  0  0  0  0  0  0
   12.5919  -29.6247  -18.1485 C   0  0  0  0  0  0  0  0  0  0  0  0
   13.5562  -30.2023  -20.2995 C   0  0  0  0  0  0  0  0  0  0  0  0
   16.0006  -28.8246  -18.0305 C   0  0  0  0  0  0  0  0  0  0  0  0
   16.2591  -29.9439  -17.2660 O   0  0  0  0  0  0  0  0  0  0  0  0
   16.8668  -27.7503  -18.0247 C   0  0  0  0  0  0  0  0  0  0  0  0
   16.6003  -26.6470  -18.7862 C   0  0  0  0  0  0  0  0  0  0  0  0
   17.4953  -25.5730  -18.7609 O   0  0  0  0  0  0  0  0  0  0  0  0
  1  2  1  1
  1  6  1  0
  2  3  1  6
  4  3  1  1
  5  4  1  1
  5  6  1  0
  6  7  1  1
  7  8  1  6
  8  9  2  0
  8 11  1  0
  9 10  1  0
 10 13  2  0
 11 12  2  0
 12 13  1  0
 13 14  1  0
 14 15  1  0
 14 23  2  0
 15 16  1  0
 15 21  2  0
 16 17  2  0
 16 18  1  0
 19 18  1  1
 20 19  1  6
 21 22  1  0
 22 23  1  0
 23 24  1  0
 24 25  2  0
 24 33  1  0
 25 26  1  0
 27 26  1  6
 26 30  2  0
 28 27  1  6
 29 27  1  6
 30 31  1  0
 30 32  1  0
 32 33  2  0
 33 34  1  0
M  CHG  1   6   1
M  END
$$$$
