
     RDKit          3D

 34 37  0  0  0  0  0  0  0  0999 V2000
   15.3795  -31.1793  -26.1584 C   0  0  0  0  0  0  0  0  0  0  0  0
   14.0800  -31.8834  -25.8772 C   0  0  0  0  0  0  0  0  0  0  0  0
   13.9407  -32.3143  -24.5790 O   0  0  0  0  0  0  0  0  0  0  0  0
   14.9523  -31.8726  -23.7286 C   0  0  0  0  0  0  0  0  0  0  0  0
   15.0265  -30.3544  -23.9344 C   0  0  0  0  0  0  0  0  0  0  0  0
   15.7148  -30.1665  -25.1966 N   0  0  2  0  0  4  0  0  0  0  0  0
   15.5655  -28.8205  -25.6995 C   0  0  0  0  0  0  0  0  0  0  0  0
   15.5370  -27.8196  -24.5954 C   0  0  0  0  0  0  0  0  0  0  0  0
   14.3911  -27.0833  -24.3848 C   0  0  0  0  0  0  0  0  0  0  0  0
   14.3380  -26.1499  -23.3676 C   0  0  0  0  0  0  0  0  0  0  0  0
   16.6095  -27.5873  -23.7600 C   0  0  0  0  0  0  0  0  0  0  0  0
   16.5674  -26.6585  -22.7417 C   0  0  0  0  0  0  0  0  0  0  0  0
   15.4178  -25.9104  -22.5198 C   0  0  0  0  0  0  0  0  0  0  0  0
   15.3332  -24.9293  -21.4531 C   0  0  0  0  0  0  0  0  0  0  0  0
   15.1543  -23.5587  -21.6730 C   0  0  0  0  0  0  0  0  0  0  0  0
   15.0414  -22.9446  -22.9877 C   0  0  0  0  0  0  0  0  0  0  0  0
   15.3257  -23.5454  -24.0308 O   0  0  0  0  0  0  0  0  0  0  0  0
   14.5856  -21.5991  -23.0796 N   0  0  0  0  0  0  0  0  0  0  0  0
   14.3065  -20.9675  -24.3608 C   0  0  0  0  0  0  0  0  0  0  0  0
   12.9041  -21.3244  -24.8057 C   0  0  0  0  0  0  0  0  0  0  0  0
   15.1203  -23.0127  -20.4511 N   0  0  0  0  0  0  0  0  0  0  0  0
   15.2628  -23.9363  -19.5372 O   0  0  0  0  0  0  0  0  0  0  0  0
   15.3969  -25.1267  -20.0983 C   0  0  0  0  0  0  0  0  0  0  0  0
   15.5791  -26.4142  -19.4441 C   0  0  0  0  0  0  0  0  0  0  0  0
   14.7985  -27.5115  -19.6077 C   0  0  0  0  0  0  0  0  0  0  0  0
   15.0381  -28.7143  -18.9446 C   0  0  0  0  0  0  0  0  0  0  0  0
   14.1575  -29.9008  -19.1489 C   0  0  1  0  0  0  0  0  0  0  0  0
   13.0303  -29.9104  -18.1287 C   0  0  0  0  0  0  0  0  0  0  0  0
   13.6658  -29.8865  -20.5668 C   0  0  0  0  0  0  0  0  0  0  0  0
   16.1235  -28.7744  -18.0855 C   0  0  0  0  0  0  0  0  0  0  0  0
   16.3594  -29.9775  -17.4251 O   0  0  0  0  0  0  0  0  0  0  0  0
   16.9456  -27.6928  -17.8834 C   0  0  0  0  0  0  0  0  0  0  0  0
   16.6610  -26.5391  -18.5618 C   0  0  0  0  0  0  0  0  0  0  0  0
   17.5086  -25.4443  -18.3457 O   0  0  0  0  0  0  0  0  0  0  0  0
  1  2  1  0
  1  6  1  0
  2  3  1  0
  3  4  1  0
  4  5  1  0
  5  6  1  0
  6  7  1  6
  7  8  1  0
  8  9  2  0
  8 11  1  0
  9 10  1  0
 10 13  2  0
 11 12  2  0
 12 13  1  0
 13 14  1  0
 14 15  1  0
 14 23  2  0
 15 16  1  0
 15 21  2  0
 16 17  2  0
 16 18  1  0
 18 19  1  0
 19 20  1  0
 21 22  1  0
 22 23  1  0
 23 24  1  0
 24 25  2  0
 24 33  1  0
 25 26  1  0
 26 27  1  0
 26 30  2  0
 27 28  1  1
 27 29  1  0
 30 31  1  0
 30 32  1  0
 32 33  2  0
 33 34  1  0
M  CHG  1   6   1
M  END
$$$$
