
     RDKit          3D

 34 37  0  0  0  0  0  0  0  0999 V2000
   16.9284  -29.4314  -27.0971 C   0  0  0  0  0  0  0  0  0  0  0  0
   17.1277  -29.2481  -28.6061 C   0  0  0  0  0  0  0  0  0  0  0  0
   16.5023  -28.1089  -29.0671 O   0  0  0  0  0  0  0  0  0  0  0  0
   16.0051  -27.2943  -28.0648 C   0  0  0  0  0  0  0  0  0  0  0  0
   15.0919  -27.9981  -27.1106 C   0  0  0  0  0  0  0  0  0  0  0  0
   15.5191  -29.3741  -26.8580 N   0  0  2  0  0  4  0  0  0  0  0  0
   15.1127  -29.7365  -25.5395 C   0  0  0  0  0  0  0  0  0  0  0  0
   15.0809  -28.6078  -24.5912 C   0  0  0  0  0  0  0  0  0  0  0  0
   16.2296  -28.2265  -23.9301 C   0  0  0  0  0  0  0  0  0  0  0  0
   16.2342  -27.1644  -23.0295 C   0  0  0  0  0  0  0  0  0  0  0  0
   13.9356  -27.8915  -24.3219 C   0  0  0  0  0  0  0  0  0  0  0  0
   13.9364  -26.8254  -23.4190 C   0  0  0  0  0  0  0  0  0  0  0  0
   15.0973  -26.4587  -22.7668 C   0  0  0  0  0  0  0  0  0  0  0  0
   15.0622  -25.3447  -21.8366 C   0  0  0  0  0  0  0  0  0  0  0  0
   14.8532  -24.0236  -22.1657 C   0  0  0  0  0  0  0  0  0  0  0  0
   14.6317  -23.5203  -23.5123 C   0  0  0  0  0  0  0  0  0  0  0  0
   15.0457  -24.0844  -24.5378 O   0  0  0  0  0  0  0  0  0  0  0  0
   13.8936  -22.2992  -23.7070 N   0  0  0  0  0  0  0  0  0  0  0  0
   13.7443  -21.7445  -25.0127 C   0  0  0  0  0  0  0  0  0  0  0  0
   14.8528  -20.7497  -25.3275 C   0  0  0  0  0  0  0  0  0  0  0  0
   14.9047  -23.3681  -20.9971 N   0  0  0  0  0  0  0  0  0  0  0  0
   15.1246  -24.1879  -20.0203 O   0  0  0  0  0  0  0  0  0  0  0  0
   15.2349  -25.4401  -20.4614 C   0  0  0  0  0  0  0  0  0  0  0  0
   15.4826  -26.6345  -19.6615 C   0  0  0  0  0  0  0  0  0  0  0  0
   14.7174  -27.7784  -19.7352 C   0  0  0  0  0  0  0  0  0  0  0  0
   14.9752  -28.8969  -18.9642 C   0  0  0  0  0  0  0  0  0  0  0  0
   14.1085  -30.0616  -19.1131 C   0  0  1  0  0  0  0  0  0  0  0  0
   12.7241  -29.8630  -18.5496 C   0  0  0  0  0  0  0  0  0  0  0  0
   13.9394  -30.3591  -20.5909 C   0  0  0  0  0  0  0  0  0  0  0  0
   16.0463  -28.8242  -18.1026 C   0  0  0  0  0  0  0  0  0  0  0  0
   16.3180  -29.9317  -17.3257 O   0  0  0  0  0  0  0  0  0  0  0  0
   16.8265  -27.6894  -18.0117 C   0  0  0  0  0  0  0  0  0  0  0  0
   16.5479  -26.5985  -18.7866 C   0  0  0  0  0  0  0  0  0  0  0  0
   17.3549  -25.4623  -18.6737 O   0  0  0  0  0  0  0  0  0  0  0  0
  1  2  1  1
  1  6  1  0
  2  3  1  6
  4  3  1  1
  5  4  1  1
  5  6  1  0
  6  7  1  1
  7  8  1  6
  8  9  2  0
  8 11  1  0
  9 10  1  0
 10 13  2  0
 11 12  2  0
 12 13  1  0
 13 14  1  0
 14 15  1  0
 14 23  2  0
 15 16  1  0
 15 21  2  0
 16 17  2  0
 16 18  1  0
 19 18  1  1
 20 19  1  6
 21 22  1  0
 22 23  1  0
 23 24  1  0
 24 25  2  0
 24 33  1  0
 25 26  1  0
 27 26  1  6
 26 30  2  0
 28 27  1  6
 29 27  1  6
 30 31  1  0
 30 32  1  0
 32 33  2  0
 33 34  1  0
M  CHG  1   6   1
M  END
$$$$
