
     RDKit          3D

 34 37  0  0  0  0  0  0  0  0999 V2000
   15.5089  -27.5768  -27.0793 C   0  0  0  0  0  0  0  0  0  0  0  0
   14.7252  -27.6918  -28.3584 C   0  0  0  0  0  0  0  0  0  0  0  0
   15.2951  -28.5189  -29.2973 O   0  0  0  0  0  0  0  0  0  0  0  0
   16.4008  -29.2247  -28.8275 C   0  0  0  0  0  0  0  0  0  0  0  0
   15.9375  -29.8935  -27.5271 C   0  0  0  0  0  0  0  0  0  0  0  0
   15.9217  -28.8392  -26.5320 N   0  0  2  0  0  4  0  0  0  0  0  0
   15.1881  -29.2230  -25.3482 C   0  0  0  0  0  0  0  0  0  0  0  0
   15.1861  -28.1388  -24.3254 C   0  0  0  0  0  0  0  0  0  0  0  0
   16.3571  -27.8357  -23.6646 C   0  0  0  0  0  0  0  0  0  0  0  0
   16.3827  -26.8347  -22.7129 C   0  0  0  0  0  0  0  0  0  0  0  0
   14.0609  -27.4107  -24.0000 C   0  0  0  0  0  0  0  0  0  0  0  0
   14.0752  -26.4095  -23.0521 C   0  0  0  0  0  0  0  0  0  0  0  0
   15.2496  -26.0951  -22.3795 C   0  0  0  0  0  0  0  0  0  0  0  0
   15.3054  -25.0426  -21.3811 C   0  0  0  0  0  0  0  0  0  0  0  0
   15.1297  -23.6855  -21.6748 C   0  0  0  0  0  0  0  0  0  0  0  0
   14.8810  -23.1581  -23.0083 C   0  0  0  0  0  0  0  0  0  0  0  0
   15.1023  -23.8110  -24.0354 O   0  0  0  0  0  0  0  0  0  0  0  0
   14.3620  -21.8390  -23.1386 N   0  0  0  0  0  0  0  0  0  0  0  0
   13.9703  -21.2907  -24.4288 C   0  0  0  0  0  0  0  0  0  0  0  0
   12.4601  -21.2750  -24.5340 C   0  0  0  0  0  0  0  0  0  0  0  0
   15.2448  -23.0580  -20.4978 N   0  0  0  0  0  0  0  0  0  0  0  0
   15.4715  -23.9217  -19.5432 O   0  0  0  0  0  0  0  0  0  0  0  0
   15.5179  -25.1503  -20.0313 C   0  0  0  0  0  0  0  0  0  0  0  0
   15.7476  -26.3955  -19.3133 C   0  0  0  0  0  0  0  0  0  0  0  0
   14.9645  -27.5021  -19.3614 C   0  0  0  0  0  0  0  0  0  0  0  0
   15.2515  -28.6621  -18.6432 C   0  0  0  0  0  0  0  0  0  0  0  0
   14.3666  -29.8604  -18.7203 C   0  0  1  0  0  0  0  0  0  0  0  0
   12.9212  -29.4429  -18.9392 C   0  0  0  0  0  0  0  0  0  0  0  0
   14.8866  -30.7638  -19.8001 C   0  0  0  0  0  0  0  0  0  0  0  0
   16.3885  -28.6681  -17.8513 C   0  0  0  0  0  0  0  0  0  0  0  0
   16.6717  -29.8286  -17.1356 O   0  0  0  0  0  0  0  0  0  0  0  0
   17.2155  -27.5747  -17.7666 C   0  0  0  0  0  0  0  0  0  0  0  0
   16.8829  -26.4648  -18.4942 C   0  0  0  0  0  0  0  0  0  0  0  0
   17.7362  -25.3574  -18.3978 O   0  0  0  0  0  0  0  0  0  0  0  0
  1  2  1  0
  1  6  1  0
  2  3  1  0
  3  4  1  0
  4  5  1  0
  5  6  1  0
  6  7  1  1
  7  8  1  0
  8  9  2  0
  8 11  1  0
  9 10  1  0
 10 13  2  0
 11 12  2  0
 12 13  1  0
 13 14  1  0
 14 15  1  0
 14 23  2  0
 15 16  1  0
 15 21  2  0
 16 17  2  0
 16 18  1  0
 18 19  1  0
 19 20  1  0
 21 22  1  0
 22 23  1  0
 23 24  1  0
 24 25  2  0
 24 33  1  0
 25 26  1  0
 26 27  1  0
 26 30  2  0
 27 28  1  6
 27 29  1  0
 30 31  1  0
 30 32  1  0
 32 33  2  0
 33 34  1  0
M  CHG  1   6   1
M  END
$$$$
