
     RDKit          3D

 34 37  0  0  0  0  0  0  0  0999 V2000
   16.8426  -29.7532  -26.1559 C   0  0  0  0  0  0  0  0  0  0  0  0
   17.5442  -29.8202  -27.5174 C   0  0  0  0  0  0  0  0  0  0  0  0
   17.4300  -28.6318  -28.2076 O   0  0  0  0  0  0  0  0  0  0  0  0
   16.8878  -27.5983  -27.4638 C   0  0  0  0  0  0  0  0  0  0  0  0
   15.5671  -27.9284  -26.8422 C   0  0  0  0  0  0  0  0  0  0  0  0
   15.5012  -29.3227  -26.4048 N   0  0  2  0  0  4  0  0  0  0  0  0
   14.6214  -29.4018  -25.2846 C   0  0  0  0  0  0  0  0  0  0  0  0
   14.7650  -28.2866  -24.3308 C   0  0  0  0  0  0  0  0  0  0  0  0
   16.0083  -27.9567  -23.8334 C   0  0  0  0  0  0  0  0  0  0  0  0
   16.1786  -26.9087  -22.9324 C   0  0  0  0  0  0  0  0  0  0  0  0
   13.6964  -27.5333  -23.8971 C   0  0  0  0  0  0  0  0  0  0  0  0
   13.8635  -26.4812  -22.9933 C   0  0  0  0  0  0  0  0  0  0  0  0
   15.1171  -26.1662  -22.5066 C   0  0  0  0  0  0  0  0  0  0  0  0
   15.2543  -25.0654  -21.5703 C   0  0  0  0  0  0  0  0  0  0  0  0
   15.1292  -23.7273  -21.8725 C   0  0  0  0  0  0  0  0  0  0  0  0
   14.8372  -23.1899  -23.1921 C   0  0  0  0  0  0  0  0  0  0  0  0
   15.0870  -23.7861  -24.2521 O   0  0  0  0  0  0  0  0  0  0  0  0
   14.2226  -21.8935  -23.3165 N   0  0  0  0  0  0  0  0  0  0  0  0
   13.8375  -21.3952  -24.5964 C   0  0  0  0  0  0  0  0  0  0  0  0
   12.3283  -21.4532  -24.7877 C   0  0  0  0  0  0  0  0  0  0  0  0
   15.3344  -23.0936  -20.7087 N   0  0  0  0  0  0  0  0  0  0  0  0
   15.5670  -23.9414  -19.7592 O   0  0  0  0  0  0  0  0  0  0  0  0
   15.5345  -25.1926  -20.2155 C   0  0  0  0  0  0  0  0  0  0  0  0
   15.7485  -26.4137  -19.4468 C   0  0  0  0  0  0  0  0  0  0  0  0
   14.8833  -27.4865  -19.4560 C   0  0  0  0  0  0  0  0  0  0  0  0
   15.1113  -28.6325  -18.7167 C   0  0  0  0  0  0  0  0  0  0  0  0
   14.1368  -29.7164  -18.7916 C   0  0  1  0  0  0  0  0  0  0  0  0
   12.8464  -29.4223  -18.0693 C   0  0  0  0  0  0  0  0  0  0  0  0
   13.7784  -29.9514  -20.2467 C   0  0  0  0  0  0  0  0  0  0  0  0
   16.2578  -28.6629  -17.9554 C   0  0  0  0  0  0  0  0  0  0  0  0
   16.5010  -29.7992  -17.2113 O   0  0  0  0  0  0  0  0  0  0  0  0
   17.1386  -27.6007  -17.9305 C   0  0  0  0  0  0  0  0  0  0  0  0
   16.8872  -26.4804  -18.6719 C   0  0  0  0  0  0  0  0  0  0  0  0
   17.7968  -25.4193  -18.6275 O   0  0  0  0  0  0  0  0  0  0  0  0
  1  2  1  1
  1  6  1  0
  2  3  1  6
  4  3  1  1
  5  4  1  1
  5  6  1  0
  6  7  1  1
  7  8  1  6
  8  9  2  0
  8 11  1  0
  9 10  1  0
 10 13  2  0
 11 12  2  0
 12 13  1  0
 13 14  1  0
 14 15  1  0
 14 23  2  0
 15 16  1  0
 15 21  2  0
 16 17  2  0
 16 18  1  0
 19 18  1  1
 20 19  1  6
 21 22  1  0
 22 23  1  0
 23 24  1  0
 24 25  2  0
 24 33  1  0
 25 26  1  0
 27 26  1  6
 26 30  2  0
 28 27  1  6
 29 27  1  6
 30 31  1  0
 30 32  1  0
 32 33  2  0
 33 34  1  0
M  CHG  1   6   1
M  END
$$$$
