
     RDKit          3D

 34 37  0  0  0  0  0  0  0  0999 V2000
   13.9162  -30.3201  -24.8667 C   0  0  0  0  0  0  0  0  0  0  0  0
   13.4176  -31.7670  -24.7754 C   0  0  0  0  0  0  0  0  0  0  0  0
   14.2405  -32.5395  -23.9831 O   0  0  0  0  0  0  0  0  0  0  0  0
   15.2059  -31.8185  -23.3023 C   0  0  0  0  0  0  0  0  0  0  0  0
   16.0515  -30.9556  -24.1854 C   0  0  0  0  0  0  0  0  0  0  0  0
   15.2818  -30.3811  -25.2887 N   0  0  2  0  0  4  0  0  0  0  0  0
   15.8647  -29.1270  -25.6388 C   0  0  0  0  0  0  0  0  0  0  0  0
   15.6988  -28.0821  -24.6118 C   0  0  0  0  0  0  0  0  0  0  0  0
   14.4790  -27.4596  -24.4483 C   0  0  0  0  0  0  0  0  0  0  0  0
   14.2884  -26.4701  -23.4872 C   0  0  0  0  0  0  0  0  0  0  0  0
   16.7228  -27.6822  -23.7819 C   0  0  0  0  0  0  0  0  0  0  0  0
   16.5352  -26.6899  -22.8165 C   0  0  0  0  0  0  0  0  0  0  0  0
   15.3058  -26.0783  -22.6682 C   0  0  0  0  0  0  0  0  0  0  0  0
   15.1460  -25.0524  -21.6535 C   0  0  0  0  0  0  0  0  0  0  0  0
   14.8773  -23.7215  -21.8856 C   0  0  0  0  0  0  0  0  0  0  0  0
   14.7084  -23.1170  -23.1977 C   0  0  0  0  0  0  0  0  0  0  0  0
   15.2088  -23.5729  -24.2384 O   0  0  0  0  0  0  0  0  0  0  0  0
   13.9215  -21.9190  -23.3373 N   0  0  0  0  0  0  0  0  0  0  0  0
   13.8303  -21.2561  -24.5971 C   0  0  0  0  0  0  0  0  0  0  0  0
   14.8284  -20.1113  -24.6998 C   0  0  0  0  0  0  0  0  0  0  0  0
   14.8171  -23.1675  -20.6660 N   0  0  0  0  0  0  0  0  0  0  0  0
   15.0264  -24.0549  -19.7478 O   0  0  0  0  0  0  0  0  0  0  0  0
   15.2397  -25.2564  -20.2825 C   0  0  0  0  0  0  0  0  0  0  0  0
   15.5104  -26.4997  -19.5693 C   0  0  0  0  0  0  0  0  0  0  0  0
   14.7299  -27.6305  -19.6771 C   0  0  0  0  0  0  0  0  0  0  0  0
   15.0102  -28.7963  -18.9886 C   0  0  0  0  0  0  0  0  0  0  0  0
   14.1247  -29.9425  -19.1680 C   0  0  1  0  0  0  0  0  0  0  0  0
   12.9175  -29.9230  -18.2647 C   0  0  0  0  0  0  0  0  0  0  0  0
   13.6036  -29.9390  -20.5926 C   0  0  0  0  0  0  0  0  0  0  0  0
   16.1203  -28.7856  -18.1747 C   0  0  0  0  0  0  0  0  0  0  0  0
   16.4148  -29.9410  -17.4801 O   0  0  0  0  0  0  0  0  0  0  0  0
   16.9164  -27.6651  -18.0509 C   0  0  0  0  0  0  0  0  0  0  0  0
   16.6148  -26.5263  -18.7440 C   0  0  0  0  0  0  0  0  0  0  0  0
   17.4388  -25.4060  -18.5994 O   0  0  0  0  0  0  0  0  0  0  0  0
  1  2  1  1
  1  6  1  0
  2  3  1  6
  4  3  1  1
  5  4  1  1
  5  6  1  0
  6  7  1  1
  7  8  1  6
  8  9  2  0
  8 11  1  0
  9 10  1  0
 10 13  2  0
 11 12  2  0
 12 13  1  0
 13 14  1  0
 14 15  1  0
 14 23  2  0
 15 16  1  0
 15 21  2  0
 16 17  2  0
 16 18  1  0
 19 18  1  1
 20 19  1  6
 21 22  1  0
 22 23  1  0
 23 24  1  0
 24 25  2  0
 24 33  1  0
 25 26  1  0
 27 26  1  6
 26 30  2  0
 28 27  1  6
 29 27  1  6
 30 31  1  0
 30 32  1  0
 32 33  2  0
 33 34  1  0
M  CHG  1   6   1
M  END
$$$$
