
     RDKit          3D

 35 38  0  0  0  0  0  0  0  0999 V2000
  -16.9090  -37.4076   -9.8579 C   0  0  0  0  0  0  0  0  0  0  0  0
  -16.9335  -38.7055   -9.1337 C   0  0  1  0  0  0  0  0  0  0  0  0
  -15.5142  -39.5454   -7.1479 C   0  0  0  0  0  0  0  0  0  0  0  0
  -17.1119  -41.0742   -8.9247 C   0  0  0  0  0  0  0  0  0  0  0  0
  -16.5644  -39.9472   -9.8165 C   0  0  2  0  0  0  0  0  0  0  0  0
  -15.0697  -40.2544   -9.8408 C   0  0  0  0  0  0  0  0  0  0  0  0
  -14.2204  -39.2494  -10.5175 C   0  0  0  0  0  0  0  0  0  0  0  0
  -15.9720  -38.5463   -8.0210 N   0  0  0  0  0  0  0  0  0  0  0  0
  -14.6959  -39.3200   -6.1951 N   0  0  0  0  0  0  0  0  0  0  0  0
  -14.6842  -37.5213  -12.5546 O   0  0  0  0  0  0  0  0  0  0  0  0
  -16.5113  -39.4769  -12.3061 C   0  0  0  0  0  0  0  0  0  0  0  0
  -13.9370  -39.7316  -13.1087 O   0  0  0  0  0  0  0  0  0  0  0  0
  -19.9600  -39.9906   -5.4382 N   0  0  0  0  0  0  0  0  0  0  0  0
  -17.0252  -40.3008  -11.1765 C   0  0  0  0  0  0  0  0  0  0  0  0
  -18.3255  -38.7821   -8.5351 C   0  0  0  0  0  0  0  0  0  0  0  0
  -18.4707  -39.3230   -7.2537 C   0  0  0  0  0  0  0  0  0  0  0  0
  -19.7219  -39.4531   -6.7226 C   0  0  0  0  0  0  0  0  0  0  0  0
  -21.1244  -40.5948   -4.9438 C   0  0  0  0  0  0  0  0  0  0  0  0
  -21.1019  -41.3469   -3.6631 C   0  0  0  0  0  0  0  0  0  0  0  0
  -20.0693  -42.0360   -1.6687 C   0  0  0  0  0  0  0  0  0  0  0  0
  -19.2811  -37.7669  -10.4963 F   0  0  0  0  0  0  0  0  0  0  0  0
  -19.4034  -38.3711   -9.2794 C   0  0  0  0  0  0  0  0  0  0  0  0
  -14.8313  -38.9797  -12.1288 S   0  0  2  0  0  6  0  0  0  0  0  0
  -16.1239  -41.2041   -7.4070 S   0  0  0  0  0  0  0  0  0  0  0  0
  -20.6705  -38.5130   -8.7207 C   0  0  0  0  0  0  0  0  0  0  0  0
  -20.8387  -39.0420   -7.4690 C   0  0  0  0  0  0  0  0  0  0  0  0
  -22.1864  -40.4972   -5.5890 O   0  0  0  0  0  0  0  0  0  0  0  0
  -22.2039  -42.0854   -3.3204 C   0  0  0  0  0  0  0  0  0  0  0  0
  -22.2203  -42.7884   -2.1553 N   0  0  0  0  0  0  0  0  0  0  0  0
  -21.1715  -42.7756   -1.3245 C   0  0  0  0  0  0  0  0  0  0  0  0
  -20.0640  -41.3399   -2.8313 N   0  0  0  0  0  0  0  0  0  0  0  0
  -21.2141  -43.5040   -0.1387 O   0  0  0  0  0  0  0  0  0  0  0  0
  -22.3153  -44.3299    0.1543 C   0  0  0  0  0  0  0  0  0  0  0  0
  -22.7668  -44.0641    1.4310 F   0  0  0  0  0  0  0  0  0  0  0  0
  -13.6709  -39.2356   -6.2934 H   0  0  0  0  0  0  0  0  0  0  0  0
  1  2  1  6
  2  5  1  0
  2  8  1  0
  2 15  1  1
  8  3  1  0
  3  9  2  0
  3 24  1  0
  5  4  1  1
  4 24  1  6
  6  5  1  1
 14  5  1  1
  7  6  1  1
 23  7  1  1
 23 10  2  0
 11 14  1  1
 11 23  1  0
 23 12  2  0
 13 17  1  0
 18 13  1  0
 16 15  2  0
 15 22  1  0
 17 16  1  0
 17 26  2  0
 19 18  1  0
 18 27  2  0
 19 28  1  0
 31 19  2  0
 20 30  2  0
 20 31  1  0
 22 21  1  0
 22 25  2  0
 25 26  1  0
 28 29  2  0
 29 30  1  0
 30 32  1  0
 32 33  1  0
 33 34  1  6
  9 35  1  0
M  END
$$$$
