
     RDKit          3D

 35 38  0  0  0  0  0  0  0  0999 V2000
  -16.4704  -37.6505  -10.2987 C   0  0  0  0  0  0  0  0  0  0  0  0
  -16.5389  -38.8892   -9.4797 C   0  0  1  0  0  0  0  0  0  0  0  0
  -15.1305  -39.6385   -7.4505 C   0  0  0  0  0  0  0  0  0  0  0  0
  -16.8119  -41.2264   -9.0932 C   0  0  0  0  0  0  0  0  0  0  0  0
  -16.2298  -40.1923  -10.0716 C   0  0  2  0  0  0  0  0  0  0  0  0
  -14.7494  -40.5628  -10.0872 C   0  0  0  0  0  0  0  0  0  0  0  0
  -13.8681  -39.6471  -10.8448 C   0  0  0  0  0  0  0  0  0  0  0  0
  -15.5578  -38.6885   -8.3911 N   0  0  0  0  0  0  0  0  0  0  0  0
  -14.2918  -39.3777   -6.5249 N   0  0  0  0  0  0  0  0  0  0  0  0
  -14.2862  -38.0565  -13.0005 O   0  0  0  0  0  0  0  0  0  0  0  0
  -16.1888  -39.9101  -12.5897 C   0  0  0  0  0  0  0  0  0  0  0  0
  -13.6374  -40.3311  -13.3956 O   0  0  0  0  0  0  0  0  0  0  0  0
  -19.8596  -40.6885   -6.2854 N   0  0  0  0  0  0  0  0  0  0  0  0
  -16.7218  -40.6259  -11.3971 C   0  0  0  0  0  0  0  0  0  0  0  0
  -17.9253  -38.8629   -8.8639 C   0  0  0  0  0  0  0  0  0  0  0  0
  -18.2177  -39.7721   -7.8423 C   0  0  0  0  0  0  0  0  0  0  0  0
  -19.4774  -39.8019   -7.3164 C   0  0  0  0  0  0  0  0  0  0  0  0
  -21.1244  -40.8667   -5.7076 C   0  0  0  0  0  0  0  0  0  0  0  0
  -21.2673  -41.5391   -4.3908 C   0  0  0  0  0  0  0  0  0  0  0  0
  -22.5446  -42.4976   -2.6678 C   0  0  0  0  0  0  0  0  0  0  0  0
  -18.5825  -37.0424  -10.2934 F   0  0  0  0  0  0  0  0  0  0  0  0
  -18.8655  -37.9916   -9.3556 C   0  0  0  0  0  0  0  0  0  0  0  0
  -14.4877  -39.4720  -12.4659 S   0  0  2  0  0  6  0  0  0  0  0  0
  -15.8110  -41.2849   -7.5796 S   0  0  0  0  0  0  0  0  0  0  0  0
  -20.1440  -38.0383   -8.8069 C   0  0  0  0  0  0  0  0  0  0  0  0
  -20.4554  -38.9211   -7.8077 C   0  0  0  0  0  0  0  0  0  0  0  0
  -22.1358  -40.4550   -6.3086 O   0  0  0  0  0  0  0  0  0  0  0  0
  -20.1337  -41.8165   -3.6732 C   0  0  0  0  0  0  0  0  0  0  0  0
  -20.2244  -42.4310   -2.4623 N   0  0  0  0  0  0  0  0  0  0  0  0
  -21.4109  -42.7757   -1.9485 C   0  0  0  0  0  0  0  0  0  0  0  0
  -22.4423  -41.8854   -3.8724 N   0  0  0  0  0  0  0  0  0  0  0  0
  -21.4758  -43.4033   -0.7073 O   0  0  0  0  0  0  0  0  0  0  0  0
  -20.3043  -43.6448    0.0343 C   0  0  0  0  0  0  0  0  0  0  0  0
  -19.8199  -44.9026   -0.2616 F   0  0  0  0  0  0  0  0  0  0  0  0
  -14.0984  -39.9769   -5.7057 H   0  0  0  0  0  0  0  0  0  0  0  0
  1  2  1  6
  2  5  1  0
  2  8  1  0
  2 15  1  1
  8  3  1  0
  3  9  2  0
  3 24  1  0
  5  4  1  1
  4 24  1  6
  6  5  1  1
 14  5  1  1
  7  6  1  1
 23  7  1  1
 23 10  2  0
 11 14  1  1
 11 23  1  0
 23 12  2  0
 13 17  1  0
 18 13  1  0
 16 15  2  0
 15 22  1  0
 17 16  1  0
 17 26  2  0
 19 18  1  0
 18 27  2  0
 19 28  1  0
 31 19  2  0
 20 30  2  0
 20 31  1  0
 22 21  1  0
 22 25  2  0
 25 26  1  0
 28 29  2  0
 29 30  1  0
 30 32  1  0
 32 33  1  0
 33 34  1  6
  9 35  1  0
M  END
$$$$
