
     RDKit          3D

 35 38  0  0  0  0  0  0  0  0999 V2000
  -16.9693  -37.1955   -9.7521 C   0  0  0  0  0  0  0  0  0  0  0  0
  -17.2369  -38.5708   -9.2286 C   0  0  1  0  0  0  0  0  0  0  0  0
  -15.8200  -39.6708   -7.3734 C   0  0  0  0  0  0  0  0  0  0  0  0
  -17.0504  -41.0331   -9.5320 C   0  0  0  0  0  0  0  0  0  0  0  0
  -16.6927  -39.6292  -10.1281 C   0  0  2  0  0  0  0  0  0  0  0  0
  -15.1846  -39.5418  -10.1227 C   0  0  0  0  0  0  0  0  0  0  0  0
  -14.5012  -39.8806  -11.4146 C   0  0  0  0  0  0  0  0  0  0  0  0
  -16.5047  -38.6308   -7.9410 N   0  0  0  0  0  0  0  0  0  0  0  0
  -15.0707  -39.5599   -6.3602 N   0  0  0  0  0  0  0  0  0  0  0  0
  -14.4443  -37.3528  -12.3920 O   0  0  0  0  0  0  0  0  0  0  0  0
  -16.7868  -38.6427  -12.4715 C   0  0  0  0  0  0  0  0  0  0  0  0
  -14.6412  -39.1947  -14.0300 O   0  0  0  0  0  0  0  0  0  0  0  0
  -20.6734  -41.0862   -6.6272 N   0  0  0  0  0  0  0  0  0  0  0  0
  -17.1988  -39.7160  -11.5027 C   0  0  0  0  0  0  0  0  0  0  0  0
  -18.6572  -38.7533   -8.8120 C   0  0  0  0  0  0  0  0  0  0  0  0
  -18.9926  -39.7726   -7.8956 C   0  0  0  0  0  0  0  0  0  0  0  0
  -20.2788  -40.0802   -7.5407 C   0  0  0  0  0  0  0  0  0  0  0  0
  -21.5115  -40.7768   -5.5147 C   0  0  0  0  0  0  0  0  0  0  0  0
  -21.4642  -41.5485   -4.2786 C   0  0  0  0  0  0  0  0  0  0  0  0
  -22.4627  -42.8551   -2.5962 C   0  0  0  0  0  0  0  0  0  0  0  0
  -19.4459  -36.9610  -10.1948 F   0  0  0  0  0  0  0  0  0  0  0  0
  -19.6680  -38.0267   -9.3768 C   0  0  0  0  0  0  0  0  0  0  0  0
  -14.9876  -38.7071  -12.6491 S   0  0  2  0  0  6  0  0  0  0  0  0
  -15.9918  -41.3114   -8.1215 S   0  0  0  0  0  0  0  0  0  0  0  0
  -20.9833  -38.3334   -9.0232 C   0  0  0  0  0  0  0  0  0  0  0  0
  -21.2975  -39.3304   -8.1309 C   0  0  0  0  0  0  0  0  0  0  0  0
  -22.2994  -39.8109   -5.6387 O   0  0  0  0  0  0  0  0  0  0  0  0
  -20.2848  -41.6576   -3.5732 C   0  0  0  0  0  0  0  0  0  0  0  0
  -20.1659  -42.3239   -2.4332 N   0  0  0  0  0  0  0  0  0  0  0  0
  -21.2702  -42.9461   -1.9139 C   0  0  0  0  0  0  0  0  0  0  0  0
  -22.5293  -42.1600   -3.7588 N   0  0  0  0  0  0  0  0  0  0  0  0
  -21.2015  -43.6549   -0.7282 O   0  0  0  0  0  0  0  0  0  0  0  0
  -21.3280  -43.0028    0.5158 C   0  0  0  0  0  0  0  0  0  0  0  0
  -22.1673  -41.9137    0.4045 F   0  0  0  0  0  0  0  0  0  0  0  0
  -15.2464  -40.0020   -5.4382 H   0  0  0  0  0  0  0  0  0  0  0  0
  2  1  1  6
  2  5  1  0
  2  8  1  0
 15  2  1  0
  8  3  1  0
  3  9  2  0
  3 24  1  0
  5  4  1  1
  4 24  1  0
  5  6  1  0
  5 14  1  0
  6  7  1  0
 23  7  1  1
 23 10  2  0
 14 11  1  0
 11 23  1  0
 23 12  2  0
 13 17  1  0
 18 13  1  0
 16 15  2  0
 15 22  1  0
 17 16  1  0
 17 26  2  0
 19 18  1  0
 18 27  2  0
 19 28  1  0
 31 19  2  0
 20 30  2  0
 20 31  1  0
 22 21  1  0
 22 25  2  0
 25 26  1  0
 28 29  2  0
 29 30  1  0
 30 32  1  0
 32 33  1  0
 33 34  1  0
  9 35  1  0
M  END
$$$$
