
     RDKit          3D

 35 38  0  0  0  0  0  0  0  0999 V2000
  -16.8065  -37.2016   -9.9619 C   0  0  0  0  0  0  0  0  0  0  0  0
  -16.9416  -38.4653   -9.1733 C   0  0  1  0  0  0  0  0  0  0  0  0
  -15.2587  -39.1726   -7.3492 C   0  0  0  0  0  0  0  0  0  0  0  0
  -16.6734  -40.9360   -9.0574 C   0  0  0  0  0  0  0  0  0  0  0  0
  -16.4593  -39.6550   -9.9333 C   0  0  2  0  0  0  0  0  0  0  0  0
  -14.9677  -39.5288  -10.1362 C   0  0  0  0  0  0  0  0  0  0  0  0
  -14.4299  -40.0787  -11.4243 C   0  0  0  0  0  0  0  0  0  0  0  0
  -16.0569  -38.2713   -7.9998 N   0  0  0  0  0  0  0  0  0  0  0  0
  -14.3987  -38.8599   -6.4758 N   0  0  0  0  0  0  0  0  0  0  0  0
  -14.6147  -37.7700  -12.8328 O   0  0  0  0  0  0  0  0  0  0  0  0
  -16.8841  -39.1135  -12.3828 C   0  0  0  0  0  0  0  0  0  0  0  0
  -14.9185  -39.8833  -14.0801 O   0  0  0  0  0  0  0  0  0  0  0  0
  -19.8354  -40.2315   -5.5113 N   0  0  0  0  0  0  0  0  0  0  0  0
  -17.1231  -40.0033  -11.1948 C   0  0  0  0  0  0  0  0  0  0  0  0
  -18.2904  -38.6061   -8.5530 C   0  0  0  0  0  0  0  0  0  0  0  0
  -18.4288  -39.2879   -7.3253 C   0  0  0  0  0  0  0  0  0  0  0  0
  -19.6366  -39.5567   -6.7390 C   0  0  0  0  0  0  0  0  0  0  0  0
  -21.1066  -40.7879   -5.1792 C   0  0  0  0  0  0  0  0  0  0  0  0
  -21.3142  -41.5554   -3.9571 C   0  0  0  0  0  0  0  0  0  0  0  0
  -20.6472  -42.3150   -1.8328 C   0  0  0  0  0  0  0  0  0  0  0  0
  -19.3914  -37.4352  -10.3316 F   0  0  0  0  0  0  0  0  0  0  0  0
  -19.4212  -38.1846   -9.1951 C   0  0  0  0  0  0  0  0  0  0  0  0
  -15.1186  -39.1622  -12.7746 S   0  0  2  0  0  6  0  0  0  0  0  0
  -15.4397  -40.9258   -7.7669 S   0  0  0  0  0  0  0  0  0  0  0  0
  -20.6581  -38.4552   -8.6068 C   0  0  0  0  0  0  0  0  0  0  0  0
  -20.7801  -39.1224   -7.4115 C   0  0  0  0  0  0  0  0  0  0  0  0
  -22.0472  -40.5946   -5.9834 O   0  0  0  0  0  0  0  0  0  0  0  0
  -22.4476  -42.3254   -3.8052 C   0  0  0  0  0  0  0  0  0  0  0  0
  -22.6987  -43.0652   -2.7341 N   0  0  0  0  0  0  0  0  0  0  0  0
  -21.7892  -43.0746   -1.7100 C   0  0  0  0  0  0  0  0  0  0  0  0
  -20.4392  -41.5763   -2.9508 N   0  0  0  0  0  0  0  0  0  0  0  0
  -22.0020  -43.8282   -0.5700 O   0  0  0  0  0  0  0  0  0  0  0  0
  -21.7711  -43.2869    0.7117 C   0  0  0  0  0  0  0  0  0  0  0  0
  -20.6994  -43.9142    1.3125 F   0  0  0  0  0  0  0  0  0  0  0  0
  -14.2645  -39.3484   -5.5704 H   0  0  0  0  0  0  0  0  0  0  0  0
  2  1  1  6
  2  5  1  0
  2  8  1  0
 15  2  1  0
  8  3  1  0
  3  9  2  0
  3 24  1  0
  5  4  1  1
  4 24  1  0
  5  6  1  0
  5 14  1  0
  6  7  1  0
 23  7  1  1
 23 10  2  0
 14 11  1  0
 11 23  1  0
 23 12  2  0
 13 17  1  0
 18 13  1  0
 16 15  2  0
 15 22  1  0
 17 16  1  0
 17 26  2  0
 19 18  1  0
 18 27  2  0
 19 28  1  0
 31 19  2  0
 20 30  2  0
 20 31  1  0
 22 21  1  0
 22 25  2  0
 25 26  1  0
 28 29  2  0
 29 30  1  0
 30 32  1  0
 32 33  1  0
 33 34  1  0
  9 35  1  0
M  END
$$$$
