
     RDKit          3D

 35 38  0  0  0  0  0  0  0  0999 V2000
  -16.8911  -36.9362   -9.4517 C   0  0  0  0  0  0  0  0  0  0  0  0
  -17.0050  -38.3425   -8.9553 C   0  0  1  0  0  0  0  0  0  0  0  0
  -15.3599  -39.3722   -7.2544 C   0  0  0  0  0  0  0  0  0  0  0  0
  -16.6474  -40.7720   -9.3550 C   0  0  0  0  0  0  0  0  0  0  0  0
  -16.4522  -39.3278   -9.9296 C   0  0  2  0  0  0  0  0  0  0  0  0
  -14.9604  -39.1168  -10.0391 C   0  0  0  0  0  0  0  0  0  0  0  0
  -14.3584  -39.3630  -11.3910 C   0  0  0  0  0  0  0  0  0  0  0  0
  -16.1690  -38.3771   -7.7317 N   0  0  0  0  0  0  0  0  0  0  0  0
  -14.5427  -39.2275   -6.2998 N   0  0  0  0  0  0  0  0  0  0  0  0
  -14.5825  -36.8134  -12.2844 O   0  0  0  0  0  0  0  0  0  0  0  0
  -16.8132  -38.2891  -12.2240 C   0  0  0  0  0  0  0  0  0  0  0  0
  -14.7630  -38.6202  -13.9630 O   0  0  0  0  0  0  0  0  0  0  0  0
  -19.9647  -41.0059   -5.9470 N   0  0  0  0  0  0  0  0  0  0  0  0
  -17.0588  -39.4186  -11.2627 C   0  0  0  0  0  0  0  0  0  0  0  0
  -18.3680  -38.6526   -8.4355 C   0  0  0  0  0  0  0  0  0  0  0  0
  -18.5270  -39.6205   -7.4210 C   0  0  0  0  0  0  0  0  0  0  0  0
  -19.7452  -40.0440   -6.9612 C   0  0  0  0  0  0  0  0  0  0  0  0
  -21.1143  -40.9326   -5.1050 C   0  0  0  0  0  0  0  0  0  0  0  0
  -21.1430  -41.5558   -3.7872 C   0  0  0  0  0  0  0  0  0  0  0  0
  -20.1566  -42.1314   -1.7305 C   0  0  0  0  0  0  0  0  0  0  0  0
  -19.4422  -37.0915   -9.9037 F   0  0  0  0  0  0  0  0  0  0  0  0
  -19.4886  -38.1006   -8.9907 C   0  0  0  0  0  0  0  0  0  0  0  0
  -15.0348  -38.2004  -12.5436 S   0  0  2  0  0  6  0  0  0  0  0  0
  -15.4598  -41.0005   -8.0416 S   0  0  0  0  0  0  0  0  0  0  0  0
  -20.7359  -38.5268   -8.5303 C   0  0  0  0  0  0  0  0  0  0  0  0
  -20.8779  -39.4723   -7.5431 C   0  0  0  0  0  0  0  0  0  0  0  0
  -22.1093  -40.3101   -5.5425 O   0  0  0  0  0  0  0  0  0  0  0  0
  -22.2656  -42.2357   -3.3654 C   0  0  0  0  0  0  0  0  0  0  0  0
  -22.3618  -42.8445   -2.1915 N   0  0  0  0  0  0  0  0  0  0  0  0
  -21.2922  -42.8034   -1.3370 C   0  0  0  0  0  0  0  0  0  0  0  0
  -20.1110  -41.5259   -2.9431 N   0  0  0  0  0  0  0  0  0  0  0  0
  -21.3394  -43.4211   -0.1003 O   0  0  0  0  0  0  0  0  0  0  0  0
  -22.5594  -43.5677    0.5919 C   0  0  0  0  0  0  0  0  0  0  0  0
  -22.7727  -42.4882    1.4238 F   0  0  0  0  0  0  0  0  0  0  0  0
  -14.3675  -39.9277   -5.5545 H   0  0  0  0  0  0  0  0  0  0  0  0
  2  1  1  6
  2  5  1  0
  2  8  1  0
 15  2  1  0
  8  3  1  0
  3  9  2  0
  3 24  1  0
  5  4  1  1
  4 24  1  0
  5  6  1  0
  5 14  1  0
  6  7  1  0
 23  7  1  1
 23 10  2  0
 14 11  1  0
 11 23  1  0
 23 12  2  0
 13 17  1  0
 18 13  1  0
 16 15  2  0
 15 22  1  0
 17 16  1  0
 17 26  2  0
 19 18  1  0
 18 27  2  0
 19 28  1  0
 31 19  2  0
 20 30  2  0
 20 31  1  0
 22 21  1  0
 22 25  2  0
 25 26  1  0
 28 29  2  0
 29 30  1  0
 30 32  1  0
 32 33  1  0
 33 34  1  0
  9 35  1  0
M  END
$$$$
