
     RDKit          3D

 35 38  0  0  0  0  0  0  0  0999 V2000
  -16.8535  -37.0979   -9.5598 C   0  0  0  0  0  0  0  0  0  0  0  0
  -17.0947  -38.4883   -9.0641 C   0  0  1  0  0  0  0  0  0  0  0  0
  -15.6883  -39.5801   -7.1959 C   0  0  0  0  0  0  0  0  0  0  0  0
  -16.8344  -40.9394   -9.4024 C   0  0  0  0  0  0  0  0  0  0  0  0
  -16.5025  -39.5167   -9.9681 C   0  0  2  0  0  0  0  0  0  0  0  0
  -14.9978  -39.3888   -9.9283 C   0  0  0  0  0  0  0  0  0  0  0  0
  -14.2778  -39.6877  -11.2101 C   0  0  0  0  0  0  0  0  0  0  0  0
  -16.3888  -38.5498   -7.7619 N   0  0  0  0  0  0  0  0  0  0  0  0
  -14.9642  -39.4657   -6.1650 N   0  0  0  0  0  0  0  0  0  0  0  0
  -14.2691  -37.1435  -12.1458 O   0  0  0  0  0  0  0  0  0  0  0  0
  -16.5732  -38.4947  -12.2970 C   0  0  0  0  0  0  0  0  0  0  0  0
  -14.3804  -38.9629  -13.8168 O   0  0  0  0  0  0  0  0  0  0  0  0
  -20.4901  -40.9824   -6.3894 N   0  0  0  0  0  0  0  0  0  0  0  0
  -16.9764  -39.5945  -11.3547 C   0  0  0  0  0  0  0  0  0  0  0  0
  -18.5180  -38.7159   -8.6816 C   0  0  0  0  0  0  0  0  0  0  0  0
  -18.8338  -39.6793   -7.7001 C   0  0  0  0  0  0  0  0  0  0  0  0
  -20.1146  -40.0289   -7.3650 C   0  0  0  0  0  0  0  0  0  0  0  0
  -21.5361  -40.7052   -5.4594 C   0  0  0  0  0  0  0  0  0  0  0  0
  -21.4936  -41.1942   -4.0864 C   0  0  0  0  0  0  0  0  0  0  0  0
  -20.4871  -41.3770   -1.9679 C   0  0  0  0  0  0  0  0  0  0  0  0
  -19.3468  -37.0799  -10.2253 F   0  0  0  0  0  0  0  0  0  0  0  0
  -19.5435  -38.0907   -9.3345 C   0  0  0  0  0  0  0  0  0  0  0  0
  -14.7695  -38.5076  -12.4362 S   0  0  2  0  0  6  0  0  0  0  0  0
  -15.7991  -41.2122   -7.9736 S   0  0  0  0  0  0  0  0  0  0  0  0
  -20.8533  -38.4410   -9.0016 C   0  0  0  0  0  0  0  0  0  0  0  0
  -21.1482  -39.3829   -8.0452 C   0  0  0  0  0  0  0  0  0  0  0  0
  -22.5035  -40.0225   -5.8679 O   0  0  0  0  0  0  0  0  0  0  0  0
  -22.4856  -42.0278   -3.6156 C   0  0  0  0  0  0  0  0  0  0  0  0
  -22.5072  -42.5288   -2.3883 N   0  0  0  0  0  0  0  0  0  0  0  0
  -21.4923  -42.2080   -1.5262 C   0  0  0  0  0  0  0  0  0  0  0  0
  -20.5132  -40.8923   -3.2342 N   0  0  0  0  0  0  0  0  0  0  0  0
  -21.4664  -42.7027   -0.2348 O   0  0  0  0  0  0  0  0  0  0  0  0
  -21.3898  -44.0894    0.0100 C   0  0  0  0  0  0  0  0  0  0  0  0
  -22.4263  -44.4914    0.8267 F   0  0  0  0  0  0  0  0  0  0  0  0
  -14.8643  -40.1854   -5.4245 H   0  0  0  0  0  0  0  0  0  0  0  0
  2  1  1  6
  2  5  1  0
  2  8  1  0
 15  2  1  0
  8  3  1  0
  3  9  2  0
  3 24  1  0
  5  4  1  1
  4 24  1  0
  5  6  1  0
  5 14  1  0
  6  7  1  0
 23  7  1  1
 23 10  2  0
 14 11  1  0
 11 23  1  0
 23 12  2  0
 13 17  1  0
 18 13  1  0
 16 15  2  0
 15 22  1  0
 17 16  1  0
 17 26  2  0
 19 18  1  0
 18 27  2  0
 19 28  1  0
 31 19  2  0
 20 30  2  0
 20 31  1  0
 22 21  1  0
 22 25  2  0
 25 26  1  0
 28 29  2  0
 29 30  1  0
 30 32  1  0
 32 33  1  0
 33 34  1  0
  9 35  1  0
M  END
$$$$
