
     RDKit          3D

 35 38  0  0  0  0  0  0  0  0999 V2000
  -16.5803  -37.0692   -9.7248 C   0  0  0  0  0  0  0  0  0  0  0  0
  -17.0102  -38.3969   -9.1868 C   0  0  1  0  0  0  0  0  0  0  0  0
  -15.8483  -39.5500   -7.1918 C   0  0  0  0  0  0  0  0  0  0  0  0
  -17.0207  -40.8752   -9.4051 C   0  0  0  0  0  0  0  0  0  0  0  0
  -16.4932  -39.5294  -10.0088 C   0  0  2  0  0  0  0  0  0  0  0  0
  -14.9885  -39.5729   -9.8824 C   0  0  0  0  0  0  0  0  0  0  0  0
  -14.2380  -40.0148  -11.1040 C   0  0  0  0  0  0  0  0  0  0  0  0
  -16.3904  -38.4751   -7.8424 N   0  0  0  0  0  0  0  0  0  0  0  0
  -15.1747  -39.4691   -6.1242 N   0  0  0  0  0  0  0  0  0  0  0  0
  -13.8785  -37.5372  -12.1436 O   0  0  0  0  0  0  0  0  0  0  0  0
  -16.3131  -38.6210  -12.3786 C   0  0  0  0  0  0  0  0  0  0  0  0
  -14.1088  -39.4113  -13.7402 O   0  0  0  0  0  0  0  0  0  0  0  0
  -20.7278  -39.5691   -6.0708 N   0  0  0  0  0  0  0  0  0  0  0  0
  -16.8946  -39.6200  -11.4173 C   0  0  0  0  0  0  0  0  0  0  0  0
  -18.4696  -38.4408   -8.8829 C   0  0  0  0  0  0  0  0  0  0  0  0
  -18.9100  -38.9207   -7.6312 C   0  0  0  0  0  0  0  0  0  0  0  0
  -20.2289  -39.0962   -7.3076 C   0  0  0  0  0  0  0  0  0  0  0  0
  -21.2481  -40.8921   -5.9492 C   0  0  0  0  0  0  0  0  0  0  0  0
  -21.3190  -41.5750   -4.6629 C   0  0  0  0  0  0  0  0  0  0  0  0
  -21.2986  -43.5100   -3.3251 C   0  0  0  0  0  0  0  0  0  0  0  0
  -19.0909  -37.5676  -11.0272 F   0  0  0  0  0  0  0  0  0  0  0  0
  -19.4072  -38.1284   -9.8274 C   0  0  0  0  0  0  0  0  0  0  0  0
  -14.5184  -38.8475  -12.4064 S   0  0  2  0  0  6  0  0  0  0  0  0
  -16.1062  -41.1948   -7.9054 S   0  0  0  0  0  0  0  0  0  0  0  0
  -20.7548  -38.3053   -9.5084 C   0  0  0  0  0  0  0  0  0  0  0  0
  -21.1713  -38.7758   -8.2861 C   0  0  0  0  0  0  0  0  0  0  0  0
  -21.6435  -41.4536   -6.9967 O   0  0  0  0  0  0  0  0  0  0  0  0
  -21.5300  -40.8557   -3.5059 C   0  0  0  0  0  0  0  0  0  0  0  0
  -21.6260  -41.4047   -2.3030 N   0  0  0  0  0  0  0  0  0  0  0  0
  -21.5100  -42.7646   -2.1868 C   0  0  0  0  0  0  0  0  0  0  0  0
  -21.2087  -42.8976   -4.5317 N   0  0  0  0  0  0  0  0  0  0  0  0
  -21.6017  -43.3885   -0.9559 O   0  0  0  0  0  0  0  0  0  0  0  0
  -21.0330  -42.8079    0.1966 C   0  0  0  0  0  0  0  0  0  0  0  0
  -19.6829  -43.0842    0.2578 F   0  0  0  0  0  0  0  0  0  0  0  0
  -14.9810  -40.2596   -5.4807 H   0  0  0  0  0  0  0  0  0  0  0  0
  2  1  1  6
  2  5  1  0
  2  8  1  0
 15  2  1  0
  8  3  1  0
  3  9  2  0
  3 24  1  0
  5  4  1  1
  4 24  1  0
  5  6  1  0
  5 14  1  0
  6  7  1  0
 23  7  1  1
 23 10  2  0
 14 11  1  0
 11 23  1  0
 23 12  2  0
 13 17  1  0
 18 13  1  0
 16 15  2  0
 15 22  1  0
 17 16  1  0
 17 26  2  0
 19 18  1  0
 18 27  2  0
 19 28  1  0
 31 19  2  0
 20 30  2  0
 20 31  1  0
 22 21  1  0
 22 25  2  0
 25 26  1  0
 28 29  2  0
 29 30  1  0
 30 32  1  0
 32 33  1  0
 33 34  1  0
  9 35  1  0
M  END
$$$$
