
     RDKit          3D

 35 38  0  0  0  0  0  0  0  0999 V2000
  -16.5661  -37.0802   -9.3696 C   0  0  0  0  0  0  0  0  0  0  0  0
  -16.8169  -38.4823   -8.9133 C   0  0  1  0  0  0  0  0  0  0  0  0
  -15.4667  -39.6108   -7.0257 C   0  0  0  0  0  0  0  0  0  0  0  0
  -16.5348  -40.9241   -9.2980 C   0  0  0  0  0  0  0  0  0  0  0  0
  -16.1913  -39.4878   -9.8206 C   0  0  2  0  0  0  0  0  0  0  0  0
  -14.6893  -39.3551   -9.7292 C   0  0  0  0  0  0  0  0  0  0  0  0
  -13.9269  -39.6223  -10.9934 C   0  0  0  0  0  0  0  0  0  0  0  0
  -16.1533  -38.5706   -7.5907 N   0  0  0  0  0  0  0  0  0  0  0  0
  -14.7769  -39.5170   -5.9695 N   0  0  0  0  0  0  0  0  0  0  0  0
  -13.8993  -37.0576  -11.8710 O   0  0  0  0  0  0  0  0  0  0  0  0
  -16.1913  -38.4136  -12.1270 C   0  0  0  0  0  0  0  0  0  0  0  0
  -13.9485  -38.8391  -13.5851 O   0  0  0  0  0  0  0  0  0  0  0  0
  -20.2836  -41.0268   -6.3812 N   0  0  0  0  0  0  0  0  0  0  0  0
  -16.6198  -39.5360  -11.2232 C   0  0  0  0  0  0  0  0  0  0  0  0
  -18.2509  -38.7239   -8.5824 C   0  0  0  0  0  0  0  0  0  0  0  0
  -18.5931  -39.6990   -7.6215 C   0  0  0  0  0  0  0  0  0  0  0  0
  -19.8819  -40.0610   -7.3342 C   0  0  0  0  0  0  0  0  0  0  0  0
  -21.2696  -40.7181   -5.3972 C   0  0  0  0  0  0  0  0  0  0  0  0
  -21.3526  -41.4470   -4.1371 C   0  0  0  0  0  0  0  0  0  0  0  0
  -22.5105  -42.7362   -2.5459 C   0  0  0  0  0  0  0  0  0  0  0  0
  -19.0383  -37.0789  -10.1381 F   0  0  0  0  0  0  0  0  0  0  0  0
  -19.2579  -38.0997   -9.2643 C   0  0  0  0  0  0  0  0  0  0  0  0
  -14.3840  -38.4167  -12.2080 S   0  0  2  0  0  6  0  0  0  0  0  0
  -15.5450  -41.2253   -7.8430 S   0  0  0  0  0  0  0  0  0  0  0  0
  -20.5758  -38.4626   -8.9802 C   0  0  0  0  0  0  0  0  0  0  0  0
  -20.8963  -39.4159   -8.0435 C   0  0  0  0  0  0  0  0  0  0  0  0
  -22.0715  -39.7915   -5.6567 O   0  0  0  0  0  0  0  0  0  0  0  0
  -20.2689  -41.4873   -3.2860 C   0  0  0  0  0  0  0  0  0  0  0  0
  -20.2725  -42.1112   -2.1162 N   0  0  0  0  0  0  0  0  0  0  0  0
  -21.4114  -42.7587   -1.7167 C   0  0  0  0  0  0  0  0  0  0  0  0
  -22.4533  -42.0822   -3.7326 N   0  0  0  0  0  0  0  0  0  0  0  0
  -21.4691  -43.4255   -0.5063 O   0  0  0  0  0  0  0  0  0  0  0  0
  -21.2500  -42.7444    0.7090 C   0  0  0  0  0  0  0  0  0  0  0  0
  -19.9185  -42.4075    0.8380 F   0  0  0  0  0  0  0  0  0  0  0  0
  -13.8390  -39.9386   -5.8313 H   0  0  0  0  0  0  0  0  0  0  0  0
  2  1  1  6
  2  5  1  0
  2  8  1  0
 15  2  1  0
  8  3  1  0
  3  9  2  0
  3 24  1  0
  5  4  1  1
  4 24  1  0
  5  6  1  0
  5 14  1  0
  6  7  1  0
 23  7  1  1
 23 10  2  0
 14 11  1  0
 11 23  1  0
 23 12  2  0
 13 17  1  0
 18 13  1  0
 16 15  2  0
 15 22  1  0
 17 16  1  0
 17 26  2  0
 19 18  1  0
 18 27  2  0
 19 28  1  0
 31 19  2  0
 20 30  2  0
 20 31  1  0
 22 21  1  0
 22 25  2  0
 25 26  1  0
 28 29  2  0
 29 30  1  0
 30 32  1  0
 32 33  1  0
 33 34  1  0
  9 35  1  0
M  END
$$$$
