
     RDKit          3D

 35 38  0  0  0  0  0  0  0  0999 V2000
  -16.5017  -36.9097   -9.6849 C   0  0  0  0  0  0  0  0  0  0  0  0
  -16.7350  -38.2807   -9.1601 C   0  0  1  0  0  0  0  0  0  0  0  0
  -15.6106  -39.5443   -7.2102 C   0  0  0  0  0  0  0  0  0  0  0  0
  -17.1871  -40.6173   -9.3102 C   0  0  0  0  0  0  0  0  0  0  0  0
  -16.4386  -39.4547   -9.9836 C   0  0  2  0  0  0  0  0  0  0  0  0
  -14.9903  -39.9332   -9.9334 C   0  0  0  0  0  0  0  0  0  0  0  0
  -13.9769  -38.9558  -10.3882 C   0  0  0  0  0  0  0  0  0  0  0  0
  -15.8725  -38.3893   -7.9633 N   0  0  0  0  0  0  0  0  0  0  0  0
  -14.8674  -39.5490   -6.1729 N   0  0  0  0  0  0  0  0  0  0  0  0
  -14.0552  -36.9265  -12.1847 O   0  0  0  0  0  0  0  0  0  0  0  0
  -16.0979  -38.6638  -12.3670 C   0  0  0  0  0  0  0  0  0  0  0  0
  -13.5014  -39.1160  -12.9912 O   0  0  0  0  0  0  0  0  0  0  0  0
  -20.1549  -39.3353   -5.7453 N   0  0  0  0  0  0  0  0  0  0  0  0
  -16.8031  -39.5643  -11.4126 C   0  0  0  0  0  0  0  0  0  0  0  0
  -18.1779  -38.2693   -8.6912 C   0  0  0  0  0  0  0  0  0  0  0  0
  -18.4703  -38.7812   -7.4231 C   0  0  0  0  0  0  0  0  0  0  0  0
  -19.7701  -38.8321   -7.0078 C   0  0  0  0  0  0  0  0  0  0  0  0
  -21.2747  -40.1118   -5.4164 C   0  0  0  0  0  0  0  0  0  0  0  0
  -21.3085  -40.8956   -4.1550 C   0  0  0  0  0  0  0  0  0  0  0  0
  -21.9920  -42.7331   -2.8607 C   0  0  0  0  0  0  0  0  0  0  0  0
  -18.8905  -37.2321  -10.7421 F   0  0  0  0  0  0  0  0  0  0  0  0
  -19.1580  -37.8095   -9.5356 C   0  0  0  0  0  0  0  0  0  0  0  0
  -14.3987  -38.4006  -11.9871 S   0  0  2  0  0  6  0  0  0  0  0  0
  -16.3682  -41.0678   -7.7537 S   0  0  0  0  0  0  0  0  0  0  0  0
  -20.4768  -37.8709   -9.0942 C   0  0  0  0  0  0  0  0  0  0  0  0
  -20.7886  -38.3701   -7.8579 C   0  0  0  0  0  0  0  0  0  0  0  0
  -22.2490  -40.1416   -6.1932 O   0  0  0  0  0  0  0  0  0  0  0  0
  -20.6178  -40.4192   -3.0719 C   0  0  0  0  0  0  0  0  0  0  0  0
  -20.6256  -41.1090   -1.8988 N   0  0  0  0  0  0  0  0  0  0  0  0
  -21.3012  -42.2575   -1.7759 C   0  0  0  0  0  0  0  0  0  0  0  0
  -21.9771  -42.0379   -4.0238 N   0  0  0  0  0  0  0  0  0  0  0  0
  -21.2930  -42.9434   -0.5643 O   0  0  0  0  0  0  0  0  0  0  0  0
  -20.9241  -42.2889    0.6258 C   0  0  0  0  0  0  0  0  0  0  0  0
  -19.6841  -42.7357    1.0348 F   0  0  0  0  0  0  0  0  0  0  0  0
  -14.9193  -40.2351   -5.4021 H   0  0  0  0  0  0  0  0  0  0  0  0
  1  2  1  6
  2  5  1  0
  2  8  1  0
  2 15  1  1
  8  3  1  0
  3  9  2  0
  3 24  1  0
  5  4  1  1
  4 24  1  6
  6  5  1  1
 14  5  1  1
  7  6  1  1
 23  7  1  1
 23 10  2  0
 11 14  1  1
 11 23  1  0
 23 12  2  0
 13 17  1  0
 18 13  1  0
 16 15  2  0
 15 22  1  0
 17 16  1  0
 17 26  2  0
 19 18  1  0
 18 27  2  0
 19 28  1  0
 31 19  2  0
 20 30  2  0
 20 31  1  0
 22 21  1  0
 22 25  2  0
 25 26  1  0
 28 29  2  0
 29 30  1  0
 30 32  1  0
 32 33  1  0
 33 34  1  6
  9 35  1  0
M  END
$$$$
