
     RDKit          3D

 35 38  0  0  0  0  0  0  0  0999 V2000
  -16.6709  -37.0390   -9.7486 C   0  0  0  0  0  0  0  0  0  0  0  0
  -16.8742  -38.4373   -9.2583 C   0  0  1  0  0  0  0  0  0  0  0  0
  -15.3432  -39.5502   -7.5042 C   0  0  0  0  0  0  0  0  0  0  0  0
  -16.6295  -40.8822   -9.6491 C   0  0  0  0  0  0  0  0  0  0  0  0
  -16.3405  -39.4502  -10.2148 C   0  0  2  0  0  0  0  0  0  0  0  0
  -14.8369  -39.3168  -10.2733 C   0  0  0  0  0  0  0  0  0  0  0  0
  -14.2030  -39.5943  -11.6045 C   0  0  0  0  0  0  0  0  0  0  0  0
  -16.0830  -38.5147   -8.0071 N   0  0  0  0  0  0  0  0  0  0  0  0
  -14.5524  -39.4477   -6.5222 N   0  0  0  0  0  0  0  0  0  0  0  0
  -14.2643  -37.0369  -12.5013 O   0  0  0  0  0  0  0  0  0  0  0  0
  -16.5693  -38.3950  -12.5186 C   0  0  0  0  0  0  0  0  0  0  0  0
  -14.4812  -38.8324  -14.1876 O   0  0  0  0  0  0  0  0  0  0  0  0
  -20.0445  -40.8023   -6.2154 N   0  0  0  0  0  0  0  0  0  0  0  0
  -16.9054  -39.5099  -11.5677 C   0  0  0  0  0  0  0  0  0  0  0  0
  -18.2682  -38.6761   -8.7853 C   0  0  0  0  0  0  0  0  0  0  0  0
  -18.5014  -39.5630   -7.7128 C   0  0  0  0  0  0  0  0  0  0  0  0
  -19.7511  -39.9228   -7.2843 C   0  0  0  0  0  0  0  0  0  0  0  0
  -21.3016  -40.7433   -5.5430 C   0  0  0  0  0  0  0  0  0  0  0  0
  -21.4637  -41.2164   -4.1734 C   0  0  0  0  0  0  0  0  0  0  0  0
  -20.8230  -41.3166   -1.9120 C   0  0  0  0  0  0  0  0  0  0  0  0
  -19.2288  -37.2021  -10.4135 F   0  0  0  0  0  0  0  0  0  0  0  0
  -19.3458  -38.1401   -9.4335 C   0  0  0  0  0  0  0  0  0  0  0  0
  -14.7788  -38.3987  -12.7777 S   0  0  2  0  0  6  0  0  0  0  0  0
  -15.5005  -41.1714   -8.2965 S   0  0  0  0  0  0  0  0  0  0  0  0
  -20.6246  -38.5018   -9.0057 C   0  0  0  0  0  0  0  0  0  0  0  0
  -20.8389  -39.3688   -7.9610 C   0  0  0  0  0  0  0  0  0  0  0  0
  -22.2718  -40.2686   -6.1772 O   0  0  0  0  0  0  0  0  0  0  0  0
  -22.4690  -42.1065   -3.8610 C   0  0  0  0  0  0  0  0  0  0  0  0
  -22.6687  -42.5970   -2.6455 N   0  0  0  0  0  0  0  0  0  0  0  0
  -21.8365  -42.2052   -1.6306 C   0  0  0  0  0  0  0  0  0  0  0  0
  -20.6626  -40.8458   -3.1736 N   0  0  0  0  0  0  0  0  0  0  0  0
  -22.0007  -42.6858   -0.3441 O   0  0  0  0  0  0  0  0  0  0  0  0
  -22.1584  -44.0656   -0.0991 C   0  0  0  0  0  0  0  0  0  0  0  0
  -20.9363  -44.6507    0.1599 F   0  0  0  0  0  0  0  0  0  0  0  0
  -14.6223  -39.9923   -5.6418 H   0  0  0  0  0  0  0  0  0  0  0  0
  2  1  1  6
  2  5  1  0
  2  8  1  0
 15  2  1  0
  8  3  1  0
  3  9  2  0
  3 24  1  0
  5  4  1  1
  4 24  1  0
  5  6  1  0
  5 14  1  0
  6  7  1  0
 23  7  1  1
 23 10  2  0
 14 11  1  0
 11 23  1  0
 23 12  2  0
 13 17  1  0
 18 13  1  0
 16 15  2  0
 15 22  1  0
 17 16  1  0
 17 26  2  0
 19 18  1  0
 18 27  2  0
 19 28  1  0
 31 19  2  0
 20 30  2  0
 20 31  1  0
 22 21  1  0
 22 25  2  0
 25 26  1  0
 28 29  2  0
 29 30  1  0
 30 32  1  0
 32 33  1  0
 33 34  1  0
  9 35  1  0
M  END
$$$$
