
     RDKit          3D

 35 38  0  0  0  0  0  0  0  0999 V2000
  -16.7238  -36.8929   -9.4228 C   0  0  0  0  0  0  0  0  0  0  0  0
  -16.9747  -38.3004   -8.9834 C   0  0  1  0  0  0  0  0  0  0  0  0
  -15.5656  -39.4817   -7.1725 C   0  0  0  0  0  0  0  0  0  0  0  0
  -16.7402  -40.7376   -9.4248 C   0  0  0  0  0  0  0  0  0  0  0  0
  -16.3988  -39.2959   -9.9336 C   0  0  2  0  0  0  0  0  0  0  0  0
  -14.8927  -39.1836   -9.8997 C   0  0  0  0  0  0  0  0  0  0  0  0
  -14.1846  -39.4357  -11.1981 C   0  0  0  0  0  0  0  0  0  0  0  0
  -16.2603  -38.4223   -7.6901 N   0  0  0  0  0  0  0  0  0  0  0  0
  -14.8333  -39.4168   -6.1432 N   0  0  0  0  0  0  0  0  0  0  0  0
  -14.1582  -36.8551  -12.0277 O   0  0  0  0  0  0  0  0  0  0  0  0
  -16.4761  -38.1775  -12.2176 C   0  0  0  0  0  0  0  0  0  0  0  0
  -14.2986  -38.6025  -13.7717 O   0  0  0  0  0  0  0  0  0  0  0  0
  -20.3709  -40.8473   -6.3599 N   0  0  0  0  0  0  0  0  0  0  0  0
  -16.8831  -39.3117  -11.3186 C   0  0  0  0  0  0  0  0  0  0  0  0
  -18.3974  -38.5306   -8.6001 C   0  0  0  0  0  0  0  0  0  0  0  0
  -18.7138  -39.5183   -7.6433 C   0  0  0  0  0  0  0  0  0  0  0  0
  -19.9949  -39.8698   -7.3113 C   0  0  0  0  0  0  0  0  0  0  0  0
  -21.2517  -40.5223   -5.2854 C   0  0  0  0  0  0  0  0  0  0  0  0
  -21.0733  -41.0793   -3.9499 C   0  0  0  0  0  0  0  0  0  0  0  0
  -19.8242  -41.4349   -1.9883 C   0  0  0  0  0  0  0  0  0  0  0  0
  -19.2246  -36.8491  -10.0950 F   0  0  0  0  0  0  0  0  0  0  0  0
  -19.4225  -37.8824   -9.2307 C   0  0  0  0  0  0  0  0  0  0  0  0
  -14.6737  -38.2013  -12.3706 S   0  0  2  0  0  6  0  0  0  0  0  0
  -15.6975  -41.0791   -8.0163 S   0  0  0  0  0  0  0  0  0  0  0  0
  -20.7327  -38.2345   -8.9009 C   0  0  0  0  0  0  0  0  0  0  0  0
  -21.0282  -39.2002   -7.9687 C   0  0  0  0  0  0  0  0  0  0  0  0
  -22.1948  -39.7357   -5.5322 O   0  0  0  0  0  0  0  0  0  0  0  0
  -22.0580  -41.8635   -3.3878 C   0  0  0  0  0  0  0  0  0  0  0  0
  -21.9623  -42.4211   -2.1887 N   0  0  0  0  0  0  0  0  0  0  0  0
  -20.8255  -42.2142   -1.4532 C   0  0  0  0  0  0  0  0  0  0  0  0
  -19.9732  -40.8885   -3.2204 N   0  0  0  0  0  0  0  0  0  0  0  0
  -20.6742  -42.7719   -0.1966 O   0  0  0  0  0  0  0  0  0  0  0  0
  -21.6496  -42.5821    0.8041 C   0  0  0  0  0  0  0  0  0  0  0  0
  -22.4998  -43.6670    0.8586 F   0  0  0  0  0  0  0  0  0  0  0  0
  -14.5742  -40.2237   -5.5447 H   0  0  0  0  0  0  0  0  0  0  0  0
  2  1  1  6
  2  5  1  0
  2  8  1  0
 15  2  1  0
  8  3  1  0
  3  9  2  0
  3 24  1  0
  5  4  1  1
  4 24  1  0
  5  6  1  0
  5 14  1  0
  6  7  1  0
 23  7  1  1
 23 10  2  0
 14 11  1  0
 11 23  1  0
 23 12  2  0
 13 17  1  0
 18 13  1  0
 16 15  2  0
 15 22  1  0
 17 16  1  0
 17 26  2  0
 19 18  1  0
 18 27  2  0
 19 28  1  0
 31 19  2  0
 20 30  2  0
 20 31  1  0
 22 21  1  0
 22 25  2  0
 25 26  1  0
 28 29  2  0
 29 30  1  0
 30 32  1  0
 32 33  1  0
 33 34  1  0
  9 35  1  0
M  END
$$$$
