
     RDKit          3D

 35 38  0  0  0  0  0  0  0  0999 V2000
  -16.4752  -37.2594   -9.6557 C   0  0  0  0  0  0  0  0  0  0  0  0
  -16.9453  -38.5356   -9.0332 C   0  0  1  0  0  0  0  0  0  0  0  0
  -15.8024  -39.6050   -6.9814 C   0  0  0  0  0  0  0  0  0  0  0  0
  -17.0447  -41.0207   -9.0984 C   0  0  0  0  0  0  0  0  0  0  0  0
  -16.4772  -39.7339   -9.7885 C   0  0  2  0  0  0  0  0  0  0  0  0
  -14.9736  -39.8231   -9.6730 C   0  0  0  0  0  0  0  0  0  0  0  0
  -14.2526  -40.3652  -10.8717 C   0  0  0  0  0  0  0  0  0  0  0  0
  -16.3138  -38.5534   -7.6921 N   0  0  0  0  0  0  0  0  0  0  0  0
  -15.1145  -39.4829   -5.9268 N   0  0  0  0  0  0  0  0  0  0  0  0
  -13.8183  -37.9702  -12.0650 O   0  0  0  0  0  0  0  0  0  0  0  0
  -16.2917  -38.9793  -12.2112 C   0  0  0  0  0  0  0  0  0  0  0  0
  -14.1316  -39.9292  -13.5411 O   0  0  0  0  0  0  0  0  0  0  0  0
  -20.6470  -39.1631   -5.7457 N   0  0  0  0  0  0  0  0  0  0  0  0
  -16.8971  -39.8963  -11.1851 C   0  0  0  0  0  0  0  0  0  0  0  0
  -18.4019  -38.5090   -8.7142 C   0  0  0  0  0  0  0  0  0  0  0  0
  -18.8363  -38.7874   -7.4008 C   0  0  0  0  0  0  0  0  0  0  0  0
  -20.1541  -38.8902   -7.0437 C   0  0  0  0  0  0  0  0  0  0  0  0
  -21.5034  -40.2792   -5.5076 C   0  0  0  0  0  0  0  0  0  0  0  0
  -21.5098  -40.9848   -4.2317 C   0  0  0  0  0  0  0  0  0  0  0  0
  -20.6087  -41.4735   -2.1142 C   0  0  0  0  0  0  0  0  0  0  0  0
  -19.0325  -37.9586  -10.9605 F   0  0  0  0  0  0  0  0  0  0  0  0
  -19.3445  -38.3269   -9.6873 C   0  0  0  0  0  0  0  0  0  0  0  0
  -14.5065  -39.2706  -12.2410 S   0  0  2  0  0  6  0  0  0  0  0  0
  -16.1254  -41.2802   -7.5901 S   0  0  0  0  0  0  0  0  0  0  0  0
  -20.6913  -38.4313   -9.3342 C   0  0  0  0  0  0  0  0  0  0  0  0
  -21.1019  -38.7053   -8.0516 C   0  0  0  0  0  0  0  0  0  0  0  0
  -22.2554  -40.6375   -6.4430 O   0  0  0  0  0  0  0  0  0  0  0  0
  -22.4840  -41.9221   -3.9618 C   0  0  0  0  0  0  0  0  0  0  0  0
  -22.5462  -42.6182   -2.8352 N   0  0  0  0  0  0  0  0  0  0  0  0
  -21.5947  -42.4040   -1.8735 C   0  0  0  0  0  0  0  0  0  0  0  0
  -20.5913  -40.7890   -3.2848 N   0  0  0  0  0  0  0  0  0  0  0  0
  -21.6131  -43.1024   -0.6798 O   0  0  0  0  0  0  0  0  0  0  0  0
  -20.7942  -44.2345   -0.4884 C   0  0  0  0  0  0  0  0  0  0  0  0
  -19.6457  -43.8876    0.1925 F   0  0  0  0  0  0  0  0  0  0  0  0
  -14.1486  -39.8401   -5.8011 H   0  0  0  0  0  0  0  0  0  0  0  0
  2  1  1  6
  2  5  1  0
  2  8  1  0
 15  2  1  0
  8  3  1  0
  3  9  2  0
  3 24  1  0
  5  4  1  1
  4 24  1  0
  5  6  1  0
  5 14  1  0
  6  7  1  0
 23  7  1  1
 23 10  2  0
 14 11  1  0
 11 23  1  0
 23 12  2  0
 13 17  1  0
 18 13  1  0
 16 15  2  0
 15 22  1  0
 17 16  1  0
 17 26  2  0
 19 18  1  0
 18 27  2  0
 19 28  1  0
 31 19  2  0
 20 30  2  0
 20 31  1  0
 22 21  1  0
 22 25  2  0
 25 26  1  0
 28 29  2  0
 29 30  1  0
 30 32  1  0
 32 33  1  0
 33 34  1  0
  9 35  1  0
M  END
$$$$
