
     RDKit          3D

 35 38  0  0  0  0  0  0  0  0999 V2000
  -16.5267  -37.4880  -10.0725 C   0  0  0  0  0  0  0  0  0  0  0  0
  -17.0033  -38.6642   -9.2809 C   0  0  1  0  0  0  0  0  0  0  0  0
  -15.7092  -39.6200   -7.2631 C   0  0  0  0  0  0  0  0  0  0  0  0
  -17.2630  -41.1310   -9.0885 C   0  0  0  0  0  0  0  0  0  0  0  0
  -16.6965  -39.9576   -9.9581 C   0  0  2  0  0  0  0  0  0  0  0  0
  -15.1978  -40.1441   -9.9913 C   0  0  0  0  0  0  0  0  0  0  0  0
  -14.6485  -40.8449  -11.1987 C   0  0  0  0  0  0  0  0  0  0  0  0
  -16.2298  -38.6040   -8.0176 N   0  0  0  0  0  0  0  0  0  0  0  0
  -14.9029  -39.4514   -6.3031 N   0  0  0  0  0  0  0  0  0  0  0  0
  -14.2012  -38.6075  -12.6625 O   0  0  0  0  0  0  0  0  0  0  0  0
  -16.7334  -39.4444  -12.4499 C   0  0  0  0  0  0  0  0  0  0  0  0
  -14.7962  -40.6662  -13.8962 O   0  0  0  0  0  0  0  0  0  0  0  0
  -20.4916  -39.3660   -5.7820 N   0  0  0  0  0  0  0  0  0  0  0  0
  -17.2773  -40.2170  -11.2805 C   0  0  0  0  0  0  0  0  0  0  0  0
  -18.4113  -38.5032   -8.8165 C   0  0  0  0  0  0  0  0  0  0  0  0
  -18.7789  -38.9474   -7.5285 C   0  0  0  0  0  0  0  0  0  0  0  0
  -20.0659  -38.9376   -7.0616 C   0  0  0  0  0  0  0  0  0  0  0  0
  -21.2840  -40.5428   -5.6302 C   0  0  0  0  0  0  0  0  0  0  0  0
  -21.2787  -41.3193   -4.3961 C   0  0  0  0  0  0  0  0  0  0  0  0
  -20.3160  -41.9860   -2.3558 C   0  0  0  0  0  0  0  0  0  0  0  0
  -19.1264  -37.4911  -10.8685 F   0  0  0  0  0  0  0  0  0  0  0  0
  -19.3895  -38.0321   -9.6469 C   0  0  0  0  0  0  0  0  0  0  0  0
  -14.9838  -39.8654  -12.6360 S   0  0  2  0  0  6  0  0  0  0  0  0
  -16.2005  -41.3163   -7.6657 S   0  0  0  0  0  0  0  0  0  0  0  0
  -20.7057  -38.0193   -9.1813 C   0  0  0  0  0  0  0  0  0  0  0  0
  -21.0516  -38.4570   -7.9252 C   0  0  0  0  0  0  0  0  0  0  0  0
  -21.9898  -40.8912   -6.6047 O   0  0  0  0  0  0  0  0  0  0  0  0
  -22.2995  -42.2069   -4.1302 C   0  0  0  0  0  0  0  0  0  0  0  0
  -22.3559  -42.9617   -3.0417 N   0  0  0  0  0  0  0  0  0  0  0  0
  -21.3493  -42.8644   -2.1180 C   0  0  0  0  0  0  0  0  0  0  0  0
  -20.3069  -41.2374   -3.4865 N   0  0  0  0  0  0  0  0  0  0  0  0
  -21.3592  -43.6282   -0.9649 O   0  0  0  0  0  0  0  0  0  0  0  0
  -20.5078  -43.3213    0.1166 C   0  0  0  0  0  0  0  0  0  0  0  0
  -20.9226  -42.1635    0.7414 F   0  0  0  0  0  0  0  0  0  0  0  0
  -15.1747  -39.3599   -5.3061 H   0  0  0  0  0  0  0  0  0  0  0  0
  2  1  1  6
  2  5  1  0
  2  8  1  0
 15  2  1  0
  8  3  1  0
  3  9  2  0
  3 24  1  0
  5  4  1  1
  4 24  1  0
  5  6  1  0
  5 14  1  0
  6  7  1  0
 23  7  1  1
 23 10  2  0
 14 11  1  0
 11 23  1  0
 23 12  2  0
 13 17  1  0
 18 13  1  0
 16 15  2  0
 15 22  1  0
 17 16  1  0
 17 26  2  0
 19 18  1  0
 18 27  2  0
 19 28  1  0
 31 19  2  0
 20 30  2  0
 20 31  1  0
 22 21  1  0
 22 25  2  0
 25 26  1  0
 28 29  2  0
 29 30  1  0
 30 32  1  0
 32 33  1  0
 33 34  1  0
  9 35  1  0
M  END
$$$$
