
     RDKit          3D

 35 38  0  0  0  0  0  0  0  0999 V2000
  -16.9960  -37.3584   -9.8784 C   0  0  0  0  0  0  0  0  0  0  0  0
  -17.1722  -38.7026   -9.2687 C   0  0  1  0  0  0  0  0  0  0  0  0
  -16.1159  -39.7361   -7.1524 C   0  0  0  0  0  0  0  0  0  0  0  0
  -17.4459  -41.0714   -9.2724 C   0  0  0  0  0  0  0  0  0  0  0  0
  -16.7312  -39.9060   -9.9769 C   0  0  2  0  0  0  0  0  0  0  0  0
  -15.2611  -40.2686   -9.7863 C   0  0  0  0  0  0  0  0  0  0  0  0
  -14.2867  -39.2518  -10.2402 C   0  0  0  0  0  0  0  0  0  0  0  0
  -16.3994  -38.6604   -8.0082 N   0  0  0  0  0  0  0  0  0  0  0  0
  -15.4567  -39.6110   -6.0669 N   0  0  0  0  0  0  0  0  0  0  0  0
  -14.3683  -37.3665  -12.1871 O   0  0  0  0  0  0  0  0  0  0  0  0
  -16.2636  -39.2622  -12.3829 C   0  0  0  0  0  0  0  0  0  0  0  0
  -13.6012  -39.5592  -12.7824 O   0  0  0  0  0  0  0  0  0  0  0  0
  -20.8416  -40.5152   -6.4905 N   0  0  0  0  0  0  0  0  0  0  0  0
  -16.9754  -40.1438  -11.4159 C   0  0  0  0  0  0  0  0  0  0  0  0
  -18.6442  -38.7674   -8.9071 C   0  0  0  0  0  0  0  0  0  0  0  0
  -19.0338  -39.5901   -7.8455 C   0  0  0  0  0  0  0  0  0  0  0  0
  -20.3603  -39.7056   -7.5432 C   0  0  0  0  0  0  0  0  0  0  0  0
  -21.3482  -40.1215   -5.2441 C   0  0  0  0  0  0  0  0  0  0  0  0
  -21.1193  -40.9552   -4.0362 C   0  0  0  0  0  0  0  0  0  0  0  0
  -19.7566  -42.2403   -2.6183 C   0  0  0  0  0  0  0  0  0  0  0  0
  -19.1933  -37.1943  -10.6432 F   0  0  0  0  0  0  0  0  0  0  0  0
  -19.5546  -38.0645   -9.6568 C   0  0  0  0  0  0  0  0  0  0  0  0
  -14.6216  -38.8446  -11.9029 S   0  0  2  0  0  6  0  0  0  0  0  0
  -16.7202  -41.3472   -7.6312 S   0  0  0  0  0  0  0  0  0  0  0  0
  -20.9022  -38.1963   -9.3333 C   0  0  0  0  0  0  0  0  0  0  0  0
  -21.3086  -38.9976   -8.3001 C   0  0  0  0  0  0  0  0  0  0  0  0
  -21.9963  -39.0607   -5.1538 O   0  0  0  0  0  0  0  0  0  0  0  0
  -22.1767  -41.1944   -3.1984 C   0  0  0  0  0  0  0  0  0  0  0  0
  -22.0062  -41.9542   -2.0823 N   0  0  0  0  0  0  0  0  0  0  0  0
  -20.8140  -42.4806   -1.7791 C   0  0  0  0  0  0  0  0  0  0  0  0
  -19.9380  -41.4823   -3.7268 N   0  0  0  0  0  0  0  0  0  0  0  0
  -20.6667  -43.2546   -0.6311 O   0  0  0  0  0  0  0  0  0  0  0  0
  -21.7767  -43.9030   -0.0582 C   0  0  0  0  0  0  0  0  0  0  0  0
  -22.0992  -45.0170   -0.8063 F   0  0  0  0  0  0  0  0  0  0  0  0
  -15.4713  -40.2771   -5.2773 H   0  0  0  0  0  0  0  0  0  0  0  0
  1  2  1  6
  2  5  1  0
  2  8  1  0
  2 15  1  1
  8  3  1  0
  3  9  2  0
  3 24  1  0
  5  4  1  1
  4 24  1  6
  6  5  1  1
 14  5  1  1
  7  6  1  1
 23  7  1  1
 23 10  2  0
 11 14  1  1
 11 23  1  0
 23 12  2  0
 13 17  1  0
 18 13  1  0
 16 15  2  0
 15 22  1  0
 17 16  1  0
 17 26  2  0
 19 18  1  0
 18 27  2  0
 19 28  1  0
 31 19  2  0
 20 30  2  0
 20 31  1  0
 22 21  1  0
 22 25  2  0
 25 26  1  0
 28 29  2  0
 29 30  1  0
 30 32  1  0
 32 33  1  0
 33 34  1  6
  9 35  1  0
M  END
$$$$
