
     RDKit          3D

 35 38  0  0  0  0  0  0  0  0999 V2000
  -16.9999  -38.1467  -10.6433 C   0  0  0  0  0  0  0  0  0  0  0  0
  -17.0324  -38.9131   -9.3700 C   0  0  1  0  0  0  0  0  0  0  0  0
  -15.3881  -38.9305   -7.3803 C   0  0  0  0  0  0  0  0  0  0  0  0
  -17.4125  -40.8213   -7.9914 C   0  0  0  0  0  0  0  0  0  0  0  0
  -16.9134  -40.3726   -9.3751 C   0  0  2  0  0  0  0  0  0  0  0  0
  -15.4838  -40.9067   -9.3896 C   0  0  0  0  0  0  0  0  0  0  0  0
  -14.6646  -40.5121  -10.5568 C   0  0  0  0  0  0  0  0  0  0  0  0
  -15.8841  -38.4094   -8.5854 N   0  0  0  0  0  0  0  0  0  0  0  0
  -14.4007  -38.4216   -6.7523 N   0  0  0  0  0  0  0  0  0  0  0  0
  -15.2910  -39.9196  -13.1275 O   0  0  0  0  0  0  0  0  0  0  0  0
  -17.2381  -41.1687  -11.7590 C   0  0  0  0  0  0  0  0  0  0  0  0
  -14.8779  -42.2166  -12.5759 O   0  0  0  0  0  0  0  0  0  0  0  0
  -21.4802  -39.9003   -7.4438 N   0  0  0  0  0  0  0  0  0  0  0  0
  -17.6329  -41.2485  -10.3249 C   0  0  0  0  0  0  0  0  0  0  0  0
  -18.3024  -38.4523   -8.6797 C   0  0  0  0  0  0  0  0  0  0  0  0
  -19.2726  -39.4081   -8.3625 C   0  0  0  0  0  0  0  0  0  0  0  0
  -20.4462  -39.0038   -7.7937 C   0  0  0  0  0  0  0  0  0  0  0  0
  -21.4009  -41.2800   -7.2089 C   0  0  0  0  0  0  0  0  0  0  0  0
  -21.7887  -41.8473   -5.8920 C   0  0  0  0  0  0  0  0  0  0  0  0
  -22.2759  -41.6553   -3.6019 C   0  0  0  0  0  0  0  0  0  0  0  0
  -17.5262  -36.1747   -8.6586 F   0  0  0  0  0  0  0  0  0  0  0  0
  -18.4888  -37.1146   -8.4331 C   0  0  0  0  0  0  0  0  0  0  0  0
  -15.5108  -40.9458  -12.0191 S   0  0  2  0  0  6  0  0  0  0  0  0
  -16.1985  -40.3772   -6.7165 S   0  0  0  0  0  0  0  0  0  0  0  0
  -19.6923  -36.7226   -7.8536 C   0  0  0  0  0  0  0  0  0  0  0  0
  -20.6586  -37.6392   -7.5362 C   0  0  0  0  0  0  0  0  0  0  0  0
  -21.0005  -42.0339   -8.1171 O   0  0  0  0  0  0  0  0  0  0  0  0
  -22.0209  -43.1948   -5.8046 C   0  0  0  0  0  0  0  0  0  0  0  0
  -22.3774  -43.7513   -4.6150 N   0  0  0  0  0  0  0  0  0  0  0  0
  -22.5085  -43.0037   -3.5130 C   0  0  0  0  0  0  0  0  0  0  0  0
  -21.9215  -41.1120   -4.7916 N   0  0  0  0  0  0  0  0  0  0  0  0
  -22.8741  -43.5983   -2.3082 O   0  0  0  0  0  0  0  0  0  0  0  0
  -22.5626  -44.9467   -2.0524 C   0  0  0  0  0  0  0  0  0  0  0  0
  -21.2534  -45.0470   -1.6277 F   0  0  0  0  0  0  0  0  0  0  0  0
  -14.0175  -38.7677   -5.8574 H   0  0  0  0  0  0  0  0  0  0  0  0
  1  2  1  6
  2  5  1  0
  2  8  1  0
  2 15  1  1
  8  3  1  0
  3  9  2  0
  3 24  1  0
  5  4  1  1
  4 24  1  6
  6  5  1  1
 14  5  1  1
  7  6  1  1
 23  7  1  1
 23 10  2  0
 11 14  1  1
 11 23  1  0
 23 12  2  0
 13 17  1  0
 18 13  1  0
 16 15  2  0
 15 22  1  0
 17 16  1  0
 17 26  2  0
 19 18  1  0
 18 27  2  0
 19 28  1  0
 31 19  2  0
 20 30  2  0
 20 31  1  0
 22 21  1  0
 22 25  2  0
 25 26  1  0
 28 29  2  0
 29 30  1  0
 30 32  1  0
 32 33  1  0
 33 34  1  6
  9 35  1  0
M  END
$$$$
