
     RDKit          3D

 35 38  0  0  0  0  0  0  0  0999 V2000
  -16.5470  -37.1872   -9.5308 C   0  0  0  0  0  0  0  0  0  0  0  0
  -16.9927  -38.4859   -8.9379 C   0  0  1  0  0  0  0  0  0  0  0  0
  -15.7369  -39.6582   -7.0120 C   0  0  0  0  0  0  0  0  0  0  0  0
  -17.1259  -40.9645   -9.1082 C   0  0  0  0  0  0  0  0  0  0  0  0
  -16.5871  -39.6529   -9.7741 C   0  0  2  0  0  0  0  0  0  0  0  0
  -15.0804  -39.7611   -9.7575 C   0  0  0  0  0  0  0  0  0  0  0  0
  -14.4421  -40.2547  -11.0223 C   0  0  0  0  0  0  0  0  0  0  0  0
  -16.2790  -38.5706   -7.6413 N   0  0  0  0  0  0  0  0  0  0  0  0
  -14.9832  -39.5905   -5.9984 N   0  0  0  0  0  0  0  0  0  0  0  0
  -14.0543  -37.8119  -12.1319 O   0  0  0  0  0  0  0  0  0  0  0  0
  -16.5440  -38.7905  -12.1674 C   0  0  0  0  0  0  0  0  0  0  0  0
  -14.4826  -39.6987  -13.6718 O   0  0  0  0  0  0  0  0  0  0  0  0
  -20.5013  -39.3303   -5.4911 N   0  0  0  0  0  0  0  0  0  0  0  0
  -17.0952  -39.7476  -11.1475 C   0  0  0  0  0  0  0  0  0  0  0  0
  -18.4261  -38.4605   -8.5271 C   0  0  0  0  0  0  0  0  0  0  0  0
  -18.7862  -38.8447   -7.2180 C   0  0  0  0  0  0  0  0  0  0  0  0
  -20.0820  -38.9540   -6.7891 C   0  0  0  0  0  0  0  0  0  0  0  0
  -21.2324  -40.5371   -5.2792 C   0  0  0  0  0  0  0  0  0  0  0  0
  -21.1047  -41.3071   -4.0477 C   0  0  0  0  0  0  0  0  0  0  0  0
  -20.0017  -41.8773   -2.0495 C   0  0  0  0  0  0  0  0  0  0  0  0
  -19.1790  -37.7041  -10.6736 F   0  0  0  0  0  0  0  0  0  0  0  0
  -19.4216  -38.1765   -9.4199 C   0  0  0  0  0  0  0  0  0  0  0  0
  -14.7678  -39.0965  -12.3224 S   0  0  2  0  0  6  0  0  0  0  0  0
  -16.1174  -41.3008   -7.6738 S   0  0  0  0  0  0  0  0  0  0  0  0
  -20.7465  -38.2866   -8.9933 C   0  0  0  0  0  0  0  0  0  0  0  0
  -21.0847  -38.6642   -7.7159 C   0  0  0  0  0  0  0  0  0  0  0  0
  -21.9937  -40.9178   -6.1982 O   0  0  0  0  0  0  0  0  0  0  0  0
  -22.0270  -42.2849   -3.7417 C   0  0  0  0  0  0  0  0  0  0  0  0
  -21.9687  -43.0394   -2.6531 N   0  0  0  0  0  0  0  0  0  0  0  0
  -20.9385  -42.8472   -1.7710 C   0  0  0  0  0  0  0  0  0  0  0  0
  -20.1083  -41.1334   -3.1784 N   0  0  0  0  0  0  0  0  0  0  0  0
  -20.8304  -43.6062   -0.6199 O   0  0  0  0  0  0  0  0  0  0  0  0
  -21.8533  -43.6025    0.3509 C   0  0  0  0  0  0  0  0  0  0  0  0
  -22.9409  -44.3250   -0.0940 F   0  0  0  0  0  0  0  0  0  0  0  0
  -15.0070  -38.8349   -5.2879 H   0  0  0  0  0  0  0  0  0  0  0  0
  2  1  1  6
  2  5  1  0
  2  8  1  0
 15  2  1  0
  8  3  1  0
  3  9  2  0
  3 24  1  0
  5  4  1  1
  4 24  1  0
  5  6  1  0
  5 14  1  0
  6  7  1  0
 23  7  1  1
 23 10  2  0
 14 11  1  0
 11 23  1  0
 23 12  2  0
 13 17  1  0
 18 13  1  0
 16 15  2  0
 15 22  1  0
 17 16  1  0
 17 26  2  0
 19 18  1  0
 18 27  2  0
 19 28  1  0
 31 19  2  0
 20 30  2  0
 20 31  1  0
 22 21  1  0
 22 25  2  0
 25 26  1  0
 28 29  2  0
 29 30  1  0
 30 32  1  0
 32 33  1  0
 33 34  1  0
  9 35  1  0
M  END
$$$$
