
     RDKit          3D

 35 38  0  0  0  0  0  0  0  0999 V2000
  -16.4860  -36.8892   -9.5370 C   0  0  0  0  0  0  0  0  0  0  0  0
  -16.9726  -38.2062   -9.0214 C   0  0  1  0  0  0  0  0  0  0  0  0
  -15.8522  -39.4494   -7.0570 C   0  0  0  0  0  0  0  0  0  0  0  0
  -17.0972  -40.6768   -9.2870 C   0  0  0  0  0  0  0  0  0  0  0  0
  -16.5127  -39.3447   -9.8686 C   0  0  2  0  0  0  0  0  0  0  0  0
  -15.0107  -39.4590   -9.7535 C   0  0  0  0  0  0  0  0  0  0  0  0
  -14.2886  -39.9106  -10.9886 C   0  0  0  0  0  0  0  0  0  0  0  0
  -16.3488  -38.3385   -7.6832 N   0  0  0  0  0  0  0  0  0  0  0  0
  -15.1690  -39.4199   -5.9928 N   0  0  0  0  0  0  0  0  0  0  0  0
  -13.8232  -37.4321  -11.9831 O   0  0  0  0  0  0  0  0  0  0  0  0
  -16.3060  -38.3996  -12.2218 C   0  0  0  0  0  0  0  0  0  0  0  0
  -14.1483  -39.2624  -13.6136 O   0  0  0  0  0  0  0  0  0  0  0  0
  -20.7041  -39.1132   -5.8344 N   0  0  0  0  0  0  0  0  0  0  0  0
  -16.9264  -39.3897  -11.2757 C   0  0  0  0  0  0  0  0  0  0  0  0
  -18.4306  -38.1898   -8.7083 C   0  0  0  0  0  0  0  0  0  0  0  0
  -18.8775  -38.5963   -7.4330 C   0  0  0  0  0  0  0  0  0  0  0  0
  -20.1989  -38.7148   -7.0947 C   0  0  0  0  0  0  0  0  0  0  0  0
  -21.4609  -40.3148   -5.6959 C   0  0  0  0  0  0  0  0  0  0  0  0
  -21.5441  -41.0290   -4.4275 C   0  0  0  0  0  0  0  0  0  0  0  0
  -20.7796  -41.5227   -2.2581 C   0  0  0  0  0  0  0  0  0  0  0  0
  -19.0386  -37.3989  -10.8880 F   0  0  0  0  0  0  0  0  0  0  0  0
  -19.3642  -37.8925   -9.6615 C   0  0  0  0  0  0  0  0  0  0  0  0
  -14.5237  -38.7066  -12.2665 S   0  0  2  0  0  6  0  0  0  0  0  0
  -16.1889  -41.0666   -7.8002 S   0  0  0  0  0  0  0  0  0  0  0  0
  -20.7146  -38.0118   -9.3275 C   0  0  0  0  0  0  0  0  0  0  0  0
  -21.1374  -38.4111   -8.0822 C   0  0  0  0  0  0  0  0  0  0  0  0
  -22.0556  -40.7409   -6.7127 O   0  0  0  0  0  0  0  0  0  0  0  0
  -22.5239  -41.9780   -4.2283 C   0  0  0  0  0  0  0  0  0  0  0  0
  -22.6529  -42.6823   -3.1125 N   0  0  0  0  0  0  0  0  0  0  0  0
  -21.7694  -42.4649   -2.0886 C   0  0  0  0  0  0  0  0  0  0  0  0
  -20.6923  -40.8301   -3.4207 N   0  0  0  0  0  0  0  0  0  0  0  0
  -21.8591  -43.1715   -0.9031 O   0  0  0  0  0  0  0  0  0  0  0  0
  -21.0412  -42.8472    0.1991 C   0  0  0  0  0  0  0  0  0  0  0  0
  -19.9329  -43.6679    0.2333 F   0  0  0  0  0  0  0  0  0  0  0  0
  -15.3862  -38.8383   -5.1616 H   0  0  0  0  0  0  0  0  0  0  0  0
  2  1  1  6
  2  5  1  0
  2  8  1  0
 15  2  1  0
  8  3  1  0
  3  9  2  0
  3 24  1  0
  5  4  1  1
  4 24  1  0
  5  6  1  0
  5 14  1  0
  6  7  1  0
 23  7  1  1
 23 10  2  0
 14 11  1  0
 11 23  1  0
 23 12  2  0
 13 17  1  0
 18 13  1  0
 16 15  2  0
 15 22  1  0
 17 16  1  0
 17 26  2  0
 19 18  1  0
 18 27  2  0
 19 28  1  0
 31 19  2  0
 20 30  2  0
 20 31  1  0
 22 21  1  0
 22 25  2  0
 25 26  1  0
 28 29  2  0
 29 30  1  0
 30 32  1  0
 32 33  1  0
 33 34  1  0
  9 35  1  0
M  END
$$$$
