
     RDKit          3D

 35 38  0  0  0  0  0  0  0  0999 V2000
  -17.0063  -37.7711  -10.4547 C   0  0  0  0  0  0  0  0  0  0  0  0
  -16.9999  -38.8274   -9.4088 C   0  0  1  0  0  0  0  0  0  0  0  0
  -15.3838  -39.2244   -7.4356 C   0  0  0  0  0  0  0  0  0  0  0  0
  -17.2600  -41.0368   -8.5501 C   0  0  0  0  0  0  0  0  0  0  0  0
  -16.7769  -40.2296   -9.7668 C   0  0  2  0  0  0  0  0  0  0  0  0
  -15.3127  -40.6479   -9.8688 C   0  0  0  0  0  0  0  0  0  0  0  0
  -14.5092  -39.9252  -10.8794 C   0  0  0  0  0  0  0  0  0  0  0  0
  -15.9005  -38.4571   -8.4911 N   0  0  0  0  0  0  0  0  0  0  0  0
  -14.4433  -38.8212   -6.6733 N   0  0  0  0  0  0  0  0  0  0  0  0
  -15.1439  -38.7618  -13.2448 O   0  0  0  0  0  0  0  0  0  0  0  0
  -17.0139  -40.4351  -12.2815 C   0  0  0  0  0  0  0  0  0  0  0  0
  -14.5747  -41.0914  -13.2591 O   0  0  0  0  0  0  0  0  0  0  0  0
  -20.0413  -39.9961   -5.6869 N   0  0  0  0  0  0  0  0  0  0  0  0
  -17.4199  -40.8909  -10.9227 C   0  0  0  0  0  0  0  0  0  0  0  0
  -18.3082  -38.6355   -8.6649 C   0  0  0  0  0  0  0  0  0  0  0  0
  -18.5336  -39.3890   -7.5085 C   0  0  0  0  0  0  0  0  0  0  0  0
  -19.7288  -39.2719   -6.8587 C   0  0  0  0  0  0  0  0  0  0  0  0
  -21.2269  -40.6712   -5.3646 C   0  0  0  0  0  0  0  0  0  0  0  0
  -21.3364  -41.4492   -4.1040 C   0  0  0  0  0  0  0  0  0  0  0  0
  -20.4544  -42.3168   -2.1070 C   0  0  0  0  0  0  0  0  0  0  0  0
  -19.0236  -36.9699  -10.2472 F   0  0  0  0  0  0  0  0  0  0  0  0
  -19.2509  -37.7741   -9.1691 C   0  0  0  0  0  0  0  0  0  0  0  0
  -15.3037  -40.0412  -12.4278 S   0  0  2  0  0  6  0  0  0  0  0  0
  -16.0970  -40.8403   -7.1698 S   0  0  0  0  0  0  0  0  0  0  0  0
  -20.4631  -37.6697   -8.4928 C   0  0  0  0  0  0  0  0  0  0  0  0
  -20.7085  -38.3987   -7.3600 C   0  0  0  0  0  0  0  0  0  0  0  0
  -22.1957  -40.6151   -6.1469 O   0  0  0  0  0  0  0  0  0  0  0  0
  -22.5352  -42.0411   -3.8045 C   0  0  0  0  0  0  0  0  0  0  0  0
  -22.6740  -42.7626   -2.6589 N   0  0  0  0  0  0  0  0  0  0  0  0
  -21.6536  -42.9098   -1.8060 C   0  0  0  0  0  0  0  0  0  0  0  0
  -20.3277  -41.6008   -3.2504 N   0  0  0  0  0  0  0  0  0  0  0  0
  -21.8221  -43.6534   -0.6410 O   0  0  0  0  0  0  0  0  0  0  0  0
  -21.3392  -43.1728    0.5905 C   0  0  0  0  0  0  0  0  0  0  0  0
  -22.3754  -42.6079    1.3057 F   0  0  0  0  0  0  0  0  0  0  0  0
  -14.3159  -39.0925   -5.6845 H   0  0  0  0  0  0  0  0  0  0  0  0
  1  2  1  6
  2  5  1  0
  2  8  1  0
  2 15  1  1
  8  3  1  0
  3  9  2  0
  3 24  1  0
  5  4  1  1
  4 24  1  6
  6  5  1  1
 14  5  1  1
  7  6  1  1
 23  7  1  1
 23 10  2  0
 11 14  1  1
 11 23  1  0
 23 12  2  0
 13 17  1  0
 18 13  1  0
 16 15  2  0
 15 22  1  0
 17 16  1  0
 17 26  2  0
 19 18  1  0
 18 27  2  0
 19 28  1  0
 31 19  2  0
 20 30  2  0
 20 31  1  0
 22 21  1  0
 22 25  2  0
 25 26  1  0
 28 29  2  0
 29 30  1  0
 30 32  1  0
 32 33  1  0
 33 34  1  6
  9 35  1  0
M  END
$$$$
