
     RDKit          3D

 35 38  0  0  0  0  0  0  0  0999 V2000
  -16.8546  -37.6681  -10.2621 C   0  0  0  0  0  0  0  0  0  0  0  0
  -17.0420  -38.7967   -9.3130 C   0  0  1  0  0  0  0  0  0  0  0  0
  -15.8040  -39.3684   -7.1213 C   0  0  0  0  0  0  0  0  0  0  0  0
  -17.4677  -41.0561   -8.6803 C   0  0  0  0  0  0  0  0  0  0  0  0
  -16.7703  -40.1740   -9.7295 C   0  0  2  0  0  0  0  0  0  0  0  0
  -15.3147  -40.6146   -9.6031 C   0  0  0  0  0  0  0  0  0  0  0  0
  -14.3391  -39.8383  -10.3998 C   0  0  0  0  0  0  0  0  0  0  0  0
  -16.1195  -38.5165   -8.1912 N   0  0  0  0  0  0  0  0  0  0  0  0
  -15.0101  -39.0409   -6.1775 N   0  0  0  0  0  0  0  0  0  0  0  0
  -14.5356  -38.4949  -12.7468 O   0  0  0  0  0  0  0  0  0  0  0  0
  -16.5600  -40.1932  -12.2549 C   0  0  0  0  0  0  0  0  0  0  0  0
  -13.9916  -40.8288  -12.8340 O   0  0  0  0  0  0  0  0  0  0  0  0
  -20.7152  -40.1882   -6.3064 N   0  0  0  0  0  0  0  0  0  0  0  0
  -17.2039  -40.7368  -11.0265 C   0  0  0  0  0  0  0  0  0  0  0  0
  -18.4597  -38.6312   -8.7987 C   0  0  0  0  0  0  0  0  0  0  0  0
  -18.8981  -39.4727   -7.7714 C   0  0  0  0  0  0  0  0  0  0  0  0
  -20.1888  -39.3770   -7.3359 C   0  0  0  0  0  0  0  0  0  0  0  0
  -20.3842  -40.1991   -4.9442 C   0  0  0  0  0  0  0  0  0  0  0  0
  -20.8558  -41.2949   -4.0592 C   0  0  0  0  0  0  0  0  0  0  0  0
  -21.7266  -43.4448   -3.6871 C   0  0  0  0  0  0  0  0  0  0  0  0
  -18.8590  -36.8187  -10.3302 F   0  0  0  0  0  0  0  0  0  0  0  0
  -19.2858  -37.7041   -9.3844 C   0  0  0  0  0  0  0  0  0  0  0  0
  -14.8479  -39.8260  -12.0682 S   0  0  2  0  0  6  0  0  0  0  0  0
  -16.5660  -40.9838   -7.1062 S   0  0  0  0  0  0  0  0  0  0  0  0
  -20.5981  -37.6228   -8.9270 C   0  0  0  0  0  0  0  0  0  0  0  0
  -21.0516  -38.4373   -7.9242 C   0  0  0  0  0  0  0  0  0  0  0  0
  -19.6871  -39.2780   -4.4759 O   0  0  0  0  0  0  0  0  0  0  0  0
  -20.8321  -41.0953   -2.7039 C   0  0  0  0  0  0  0  0  0  0  0  0
  -21.2569  -42.0756   -1.8610 N   0  0  0  0  0  0  0  0  0  0  0  0
  -21.7035  -43.2463   -2.3305 C   0  0  0  0  0  0  0  0  0  0  0  0
  -21.3012  -42.4617   -4.5169 N   0  0  0  0  0  0  0  0  0  0  0  0
  -22.1326  -44.2326   -1.4464 O   0  0  0  0  0  0  0  0  0  0  0  0
  -21.4202  -44.4888   -0.2600 C   0  0  0  0  0  0  0  0  0  0  0  0
  -22.2255  -45.1773    0.6243 F   0  0  0  0  0  0  0  0  0  0  0  0
  -15.1540  -39.2470   -5.1753 H   0  0  0  0  0  0  0  0  0  0  0  0
  1  2  1  6
  2  5  1  0
  2  8  1  0
  2 15  1  1
  8  3  1  0
  3  9  2  0
  3 24  1  0
  5  4  1  1
  4 24  1  6
  6  5  1  1
 14  5  1  1
  7  6  1  1
 23  7  1  1
 23 10  2  0
 11 14  1  1
 11 23  1  0
 23 12  2  0
 13 17  1  0
 18 13  1  0
 16 15  2  0
 15 22  1  0
 17 16  1  0
 17 26  2  0
 19 18  1  0
 18 27  2  0
 19 28  1  0
 31 19  2  0
 20 30  2  0
 20 31  1  0
 22 21  1  0
 22 25  2  0
 25 26  1  0
 28 29  2  0
 29 30  1  0
 30 32  1  0
 32 33  1  0
 33 34  1  6
  9 35  1  0
M  END
$$$$
