
     RDKit          3D

 35 38  0  0  0  0  0  0  0  0999 V2000
  -16.6331  -37.3844   -9.5824 C   0  0  0  0  0  0  0  0  0  0  0  0
  -17.0692  -38.6673   -8.9490 C   0  0  1  0  0  0  0  0  0  0  0  0
  -15.8472  -39.7317   -6.9406 C   0  0  0  0  0  0  0  0  0  0  0  0
  -17.1458  -41.1530   -9.0197 C   0  0  0  0  0  0  0  0  0  0  0  0
  -16.6148  -39.8584   -9.7239 C   0  0  2  0  0  0  0  0  0  0  0  0
  -15.1074  -39.9327   -9.6592 C   0  0  0  0  0  0  0  0  0  0  0  0
  -14.4216  -40.4636  -10.8835 C   0  0  0  0  0  0  0  0  0  0  0  0
  -16.3927  -38.6830   -7.6300 N   0  0  0  0  0  0  0  0  0  0  0  0
  -15.1255  -39.6060   -5.9093 N   0  0  0  0  0  0  0  0  0  0  0  0
  -14.0518  -38.0605  -12.0822 O   0  0  0  0  0  0  0  0  0  0  0  0
  -16.5185  -39.0941  -12.1488 C   0  0  0  0  0  0  0  0  0  0  0  0
  -14.3949  -40.0178  -13.5538 O   0  0  0  0  0  0  0  0  0  0  0  0
  -20.6805  -39.6419   -5.6456 N   0  0  0  0  0  0  0  0  0  0  0  0
  -17.0798  -40.0205  -11.1061 C   0  0  0  0  0  0  0  0  0  0  0  0
  -18.5144  -38.6565   -8.5812 C   0  0  0  0  0  0  0  0  0  0  0  0
  -18.9140  -39.0911   -7.2995 C   0  0  0  0  0  0  0  0  0  0  0  0
  -20.2221  -39.2158   -6.9146 C   0  0  0  0  0  0  0  0  0  0  0  0
  -21.3105  -40.9118   -5.4835 C   0  0  0  0  0  0  0  0  0  0  0  0
  -21.1383  -41.7064   -4.2732 C   0  0  0  0  0  0  0  0  0  0  0  0
  -19.8628  -42.4974   -2.4616 C   0  0  0  0  0  0  0  0  0  0  0  0
  -19.2021  -37.8163  -10.7184 F   0  0  0  0  0  0  0  0  0  0  0  0
  -19.4825  -38.3370   -9.4919 C   0  0  0  0  0  0  0  0  0  0  0  0
  -14.7324  -39.3672  -12.2395 S   0  0  2  0  0  6  0  0  0  0  0  0
  -16.1737  -41.4080   -7.5440 S   0  0  0  0  0  0  0  0  0  0  0  0
  -20.8196  -38.4623   -9.1103 C   0  0  0  0  0  0  0  0  0  0  0  0
  -21.1963  -38.8891   -7.8594 C   0  0  0  0  0  0  0  0  0  0  0  0
  -22.0219  -41.3261   -6.4275 O   0  0  0  0  0  0  0  0  0  0  0  0
  -22.1682  -42.4968   -3.8094 C   0  0  0  0  0  0  0  0  0  0  0  0
  -22.0827  -43.2614   -2.7297 N   0  0  0  0  0  0  0  0  0  0  0  0
  -20.9096  -43.2769   -2.0228 C   0  0  0  0  0  0  0  0  0  0  0  0
  -20.0034  -41.7336   -3.5733 N   0  0  0  0  0  0  0  0  0  0  0  0
  -20.7669  -44.0561   -0.8891 O   0  0  0  0  0  0  0  0  0  0  0  0
  -21.7424  -44.0416    0.1293 C   0  0  0  0  0  0  0  0  0  0  0  0
  -21.2290  -43.4776    1.2788 F   0  0  0  0  0  0  0  0  0  0  0  0
  -15.2221  -40.1680   -5.0426 H   0  0  0  0  0  0  0  0  0  0  0  0
  2  1  1  6
  2  5  1  0
  2  8  1  0
 15  2  1  0
  8  3  1  0
  3  9  2  0
  3 24  1  0
  5  4  1  1
  4 24  1  0
  5  6  1  0
  5 14  1  0
  6  7  1  0
 23  7  1  1
 23 10  2  0
 14 11  1  0
 11 23  1  0
 23 12  2  0
 13 17  1  0
 18 13  1  0
 16 15  2  0
 15 22  1  0
 17 16  1  0
 17 26  2  0
 19 18  1  0
 18 27  2  0
 19 28  1  0
 31 19  2  0
 20 30  2  0
 20 31  1  0
 22 21  1  0
 22 25  2  0
 25 26  1  0
 28 29  2  0
 29 30  1  0
 30 32  1  0
 32 33  1  0
 33 34  1  0
  9 35  1  0
M  END
$$$$
