
     RDKit          3D

 35 38  0  0  0  0  0  0  0  0999 V2000
  -16.5593  -37.4269   -9.7323 C   0  0  0  0  0  0  0  0  0  0  0  0
  -17.0688  -38.6804   -9.0950 C   0  0  1  0  0  0  0  0  0  0  0  0
  -15.8905  -39.8273   -7.1061 C   0  0  0  0  0  0  0  0  0  0  0  0
  -17.3080  -41.1557   -9.1690 C   0  0  0  0  0  0  0  0  0  0  0  0
  -16.7038  -39.8964   -9.8784 C   0  0  2  0  0  0  0  0  0  0  0  0
  -15.2037  -40.0687   -9.8353 C   0  0  0  0  0  0  0  0  0  0  0  0
  -14.5712  -40.6398  -11.0701 C   0  0  0  0  0  0  0  0  0  0  0  0
  -16.3764  -38.7435   -7.7858 N   0  0  0  0  0  0  0  0  0  0  0  0
  -15.1478  -39.7515   -6.0850 N   0  0  0  0  0  0  0  0  0  0  0  0
  -14.0628  -38.2626  -12.2697 O   0  0  0  0  0  0  0  0  0  0  0  0
  -16.5922  -39.1335  -12.3030 C   0  0  0  0  0  0  0  0  0  0  0  0
  -14.5531  -40.1895  -13.7398 O   0  0  0  0  0  0  0  0  0  0  0  0
  -20.6759  -39.3549   -5.7131 N   0  0  0  0  0  0  0  0  0  0  0  0
  -17.1978  -40.0242  -11.2542 C   0  0  0  0  0  0  0  0  0  0  0  0
  -18.5050  -38.5767   -8.7067 C   0  0  0  0  0  0  0  0  0  0  0  0
  -18.9079  -38.9521   -7.4075 C   0  0  0  0  0  0  0  0  0  0  0  0
  -20.2146  -38.9909   -7.0002 C   0  0  0  0  0  0  0  0  0  0  0  0
  -21.4884  -40.5130   -5.5271 C   0  0  0  0  0  0  0  0  0  0  0  0
  -21.5369  -41.2216   -4.2538 C   0  0  0  0  0  0  0  0  0  0  0  0
  -20.7390  -41.6747   -2.0875 C   0  0  0  0  0  0  0  0  0  0  0  0
  -19.1782  -37.7578  -10.8567 F   0  0  0  0  0  0  0  0  0  0  0  0
  -19.4679  -38.2275   -9.6120 C   0  0  0  0  0  0  0  0  0  0  0  0
  -14.8291  -39.5219  -12.4197 S   0  0  2  0  0  6  0  0  0  0  0  0
  -16.3338  -41.4773   -7.7078 S   0  0  0  0  0  0  0  0  0  0  0  0
  -20.8037  -38.2654   -9.2076 C   0  0  0  0  0  0  0  0  0  0  0  0
  -21.1838  -38.6352   -7.9396 C   0  0  0  0  0  0  0  0  0  0  0  0
  -22.1637  -40.9056   -6.5063 O   0  0  0  0  0  0  0  0  0  0  0  0
  -22.4816  -42.2028   -4.0411 C   0  0  0  0  0  0  0  0  0  0  0  0
  -22.5774  -42.9041   -2.9200 N   0  0  0  0  0  0  0  0  0  0  0  0
  -21.6940  -42.6496   -1.9046 C   0  0  0  0  0  0  0  0  0  0  0  0
  -20.6848  -40.9869   -3.2550 N   0  0  0  0  0  0  0  0  0  0  0  0
  -21.7500  -43.3514   -0.7141 O   0  0  0  0  0  0  0  0  0  0  0  0
  -20.5888  -43.9210   -0.1519 C   0  0  0  0  0  0  0  0  0  0  0  0
  -19.9108  -42.9854    0.6016 F   0  0  0  0  0  0  0  0  0  0  0  0
  -15.1951  -40.3862   -5.2656 H   0  0  0  0  0  0  0  0  0  0  0  0
  2  1  1  6
  2  5  1  0
  2  8  1  0
 15  2  1  0
  8  3  1  0
  3  9  2  0
  3 24  1  0
  5  4  1  1
  4 24  1  0
  5  6  1  0
  5 14  1  0
  6  7  1  0
 23  7  1  1
 23 10  2  0
 14 11  1  0
 11 23  1  0
 23 12  2  0
 13 17  1  0
 18 13  1  0
 16 15  2  0
 15 22  1  0
 17 16  1  0
 17 26  2  0
 19 18  1  0
 18 27  2  0
 19 28  1  0
 31 19  2  0
 20 30  2  0
 20 31  1  0
 22 21  1  0
 22 25  2  0
 25 26  1  0
 28 29  2  0
 29 30  1  0
 30 32  1  0
 32 33  1  0
 33 34  1  0
  9 35  1  0
M  END
$$$$
