
     RDKit          3D

 35 38  0  0  0  0  0  0  0  0999 V2000
  -16.8844  -37.1536   -9.8121 C   0  0  0  0  0  0  0  0  0  0  0  0
  -17.0484  -38.4815   -9.1438 C   0  0  1  0  0  0  0  0  0  0  0  0
  -15.3921  -39.3851   -7.3831 C   0  0  0  0  0  0  0  0  0  0  0  0
  -16.8266  -40.9571   -9.2540 C   0  0  0  0  0  0  0  0  0  0  0  0
  -16.5826  -39.6054  -10.0072 C   0  0  2  0  0  0  0  0  0  0  0  0
  -15.0874  -39.4894  -10.1894 C   0  0  0  0  0  0  0  0  0  0  0  0
  -14.5505  -39.9289  -11.5196 C   0  0  0  0  0  0  0  0  0  0  0  0
  -16.1688  -38.4129   -7.9525 N   0  0  0  0  0  0  0  0  0  0  0  0
  -14.5328  -39.1703   -6.4800 N   0  0  0  0  0  0  0  0  0  0  0  0
  -14.6827  -37.4975  -12.7109 O   0  0  0  0  0  0  0  0  0  0  0  0
  -16.9795  -38.8334  -12.3989 C   0  0  0  0  0  0  0  0  0  0  0  0
  -15.0162  -39.4813  -14.1489 O   0  0  0  0  0  0  0  0  0  0  0  0
  -19.9981  -40.5088   -5.6662 N   0  0  0  0  0  0  0  0  0  0  0  0
  -17.2435  -39.8238  -11.2990 C   0  0  0  0  0  0  0  0  0  0  0  0
  -18.4041  -38.6530   -8.5465 C   0  0  0  0  0  0  0  0  0  0  0  0
  -18.5627  -39.4357   -7.3831 C   0  0  0  0  0  0  0  0  0  0  0  0
  -19.7792  -39.7342   -6.8299 C   0  0  0  0  0  0  0  0  0  0  0  0
  -21.3206  -40.8383   -5.2443 C   0  0  0  0  0  0  0  0  0  0  0  0
  -21.5808  -41.4793   -3.9608 C   0  0  0  0  0  0  0  0  0  0  0  0
  -20.9147  -42.2407   -1.8369 C   0  0  0  0  0  0  0  0  0  0  0  0
  -19.4725  -37.3153  -10.2244 F   0  0  0  0  0  0  0  0  0  0  0  0
  -19.5230  -38.1593   -9.1570 C   0  0  0  0  0  0  0  0  0  0  0  0
  -15.2124  -38.8794  -12.7837 S   0  0  2  0  0  6  0  0  0  0  0  0
  -15.6023  -41.0888   -7.9612 S   0  0  0  0  0  0  0  0  0  0  0  0
  -20.7686  -38.4591   -8.6022 C   0  0  0  0  0  0  0  0  0  0  0  0
  -20.9104  -39.2248   -7.4697 C   0  0  0  0  0  0  0  0  0  0  0  0
  -22.2602  -40.5573   -6.0236 O   0  0  0  0  0  0  0  0  0  0  0  0
  -22.8292  -41.9934   -3.6822 C   0  0  0  0  0  0  0  0  0  0  0  0
  -23.1381  -42.6069   -2.5482 N   0  0  0  0  0  0  0  0  0  0  0  0
  -22.1716  -42.7445   -1.5875 C   0  0  0  0  0  0  0  0  0  0  0  0
  -20.6517  -41.6221   -3.0148 N   0  0  0  0  0  0  0  0  0  0  0  0
  -22.4405  -43.3754   -0.3864 O   0  0  0  0  0  0  0  0  0  0  0  0
  -22.8010  -42.6345    0.7581 C   0  0  0  0  0  0  0  0  0  0  0  0
  -24.1309  -42.2733    0.6977 F   0  0  0  0  0  0  0  0  0  0  0  0
  -14.4051  -39.7503   -5.6293 H   0  0  0  0  0  0  0  0  0  0  0  0
  2  1  1  6
  2  5  1  0
  2  8  1  0
 15  2  1  0
  8  3  1  0
  3  9  2  0
  3 24  1  0
  5  4  1  1
  4 24  1  0
  5  6  1  0
  5 14  1  0
  6  7  1  0
 23  7  1  1
 23 10  2  0
 14 11  1  0
 11 23  1  0
 23 12  2  0
 13 17  1  0
 18 13  1  0
 16 15  2  0
 15 22  1  0
 17 16  1  0
 17 26  2  0
 19 18  1  0
 18 27  2  0
 19 28  1  0
 31 19  2  0
 20 30  2  0
 20 31  1  0
 22 21  1  0
 22 25  2  0
 25 26  1  0
 28 29  2  0
 29 30  1  0
 30 32  1  0
 32 33  1  0
 33 34  1  0
  9 35  1  0
M  END
$$$$
