
     RDKit          3D

 35 38  0  0  0  0  0  0  0  0999 V2000
  -16.6431  -37.1557   -9.7929 C   0  0  0  0  0  0  0  0  0  0  0  0
  -17.1118  -38.4515   -9.2112 C   0  0  1  0  0  0  0  0  0  0  0  0
  -15.9622  -39.5889   -7.2001 C   0  0  0  0  0  0  0  0  0  0  0  0
  -17.2131  -40.9330   -9.3584 C   0  0  0  0  0  0  0  0  0  0  0  0
  -16.6472  -39.6244  -10.0075 C   0  0  2  0  0  0  0  0  0  0  0  0
  -15.1433  -39.7182   -9.9005 C   0  0  0  0  0  0  0  0  0  0  0  0
  -14.4269  -40.2207  -11.1191 C   0  0  0  0  0  0  0  0  0  0  0  0
  -16.4754  -38.5140   -7.8738 N   0  0  0  0  0  0  0  0  0  0  0  0
  -15.2705  -39.5022   -6.1446 N   0  0  0  0  0  0  0  0  0  0  0  0
  -13.9953  -37.7877  -12.2340 O   0  0  0  0  0  0  0  0  0  0  0  0
  -16.4699  -38.7900  -12.4046 C   0  0  0  0  0  0  0  0  0  0  0  0
  -14.3152  -39.6965  -13.7730 O   0  0  0  0  0  0  0  0  0  0  0  0
  -20.8080  -39.2544   -5.9559 N   0  0  0  0  0  0  0  0  0  0  0  0
  -17.0722  -39.7401  -11.4072 C   0  0  0  0  0  0  0  0  0  0  0  0
  -18.5672  -38.4347   -8.8863 C   0  0  0  0  0  0  0  0  0  0  0  0
  -18.9996  -38.7902   -7.5910 C   0  0  0  0  0  0  0  0  0  0  0  0
  -20.3170  -38.9058   -7.2364 C   0  0  0  0  0  0  0  0  0  0  0  0
  -21.3344  -40.5563   -5.7034 C   0  0  0  0  0  0  0  0  0  0  0  0
  -21.3529  -41.1314   -4.3637 C   0  0  0  0  0  0  0  0  0  0  0  0
  -20.7286  -41.1555   -2.0956 C   0  0  0  0  0  0  0  0  0  0  0  0
  -19.2006  -37.7431  -11.0925 F   0  0  0  0  0  0  0  0  0  0  0  0
  -19.5114  -38.1867   -9.8432 C   0  0  0  0  0  0  0  0  0  0  0  0
  -14.6850  -39.0812  -12.4504 S   0  0  2  0  0  6  0  0  0  0  0  0
  -16.2885  -41.2428   -7.8628 S   0  0  0  0  0  0  0  0  0  0  0  0
  -20.8578  -38.3035   -9.4926 C   0  0  0  0  0  0  0  0  0  0  0  0
  -21.2665  -38.6530   -8.2278 C   0  0  0  0  0  0  0  0  0  0  0  0
  -21.7824  -41.1959   -6.6828 O   0  0  0  0  0  0  0  0  0  0  0  0
  -22.0380  -42.3028   -4.1207 C   0  0  0  0  0  0  0  0  0  0  0  0
  -22.0859  -42.8974   -2.9367 N   0  0  0  0  0  0  0  0  0  0  0  0
  -21.4217  -42.3262   -1.8837 C   0  0  0  0  0  0  0  0  0  0  0  0
  -20.7118  -40.5890   -3.3277 N   0  0  0  0  0  0  0  0  0  0  0  0
  -21.4393  -42.9045   -0.6274 O   0  0  0  0  0  0  0  0  0  0  0  0
  -21.0683  -44.2526   -0.4434 C   0  0  0  0  0  0  0  0  0  0  0  0
  -19.6945  -44.3721   -0.4054 F   0  0  0  0  0  0  0  0  0  0  0  0
  -15.5491  -39.8754   -5.2176 H   0  0  0  0  0  0  0  0  0  0  0  0
  2  1  1  6
  2  5  1  0
  2  8  1  0
 15  2  1  0
  8  3  1  0
  3  9  2  0
  3 24  1  0
  5  4  1  1
  4 24  1  0
  5  6  1  0
  5 14  1  0
  6  7  1  0
 23  7  1  1
 23 10  2  0
 14 11  1  0
 11 23  1  0
 23 12  2  0
 13 17  1  0
 18 13  1  0
 16 15  2  0
 15 22  1  0
 17 16  1  0
 17 26  2  0
 19 18  1  0
 18 27  2  0
 19 28  1  0
 31 19  2  0
 20 30  2  0
 20 31  1  0
 22 21  1  0
 22 25  2  0
 25 26  1  0
 28 29  2  0
 29 30  1  0
 30 32  1  0
 32 33  1  0
 33 34  1  0
  9 35  1  0
M  END
$$$$
