
     RDKit          3D

 35 38  0  0  0  0  0  0  0  0999 V2000
  -16.3549  -37.1114   -9.6098 C   0  0  0  0  0  0  0  0  0  0  0  0
  -16.5372  -38.4812   -9.0376 C   0  0  1  0  0  0  0  0  0  0  0  0
  -15.0382  -39.4357   -7.1663 C   0  0  0  0  0  0  0  0  0  0  0  0
  -16.2132  -40.9378   -9.2622 C   0  0  0  0  0  0  0  0  0  0  0  0
  -15.9436  -39.5367   -9.9090 C   0  0  2  0  0  0  0  0  0  0  0  0
  -14.4430  -39.3634   -9.9267 C   0  0  0  0  0  0  0  0  0  0  0  0
  -13.7562  -39.7061  -11.2158 C   0  0  0  0  0  0  0  0  0  0  0  0
  -15.7880  -38.4561   -7.7588 N   0  0  0  0  0  0  0  0  0  0  0  0
  -14.2849  -39.2482   -6.1676 N   0  0  0  0  0  0  0  0  0  0  0  0
  -13.8556  -37.2134  -12.2766 O   0  0  0  0  0  0  0  0  0  0  0  0
  -16.1210  -38.6366  -12.2821 C   0  0  0  0  0  0  0  0  0  0  0  0
  -13.9654  -39.1177  -13.8502 O   0  0  0  0  0  0  0  0  0  0  0  0
  -19.7536  -40.8275   -6.0287 N   0  0  0  0  0  0  0  0  0  0  0  0
  -16.4596  -39.6984  -11.2731 C   0  0  0  0  0  0  0  0  0  0  0  0
  -17.9398  -38.7302   -8.5962 C   0  0  0  0  0  0  0  0  0  0  0  0
  -18.1889  -39.5977   -7.5115 C   0  0  0  0  0  0  0  0  0  0  0  0
  -19.4443  -39.9665   -7.1081 C   0  0  0  0  0  0  0  0  0  0  0  0
  -20.9969  -40.7171   -5.3373 C   0  0  0  0  0  0  0  0  0  0  0  0
  -21.1827  -41.2623   -3.9979 C   0  0  0  0  0  0  0  0  0  0  0  0
  -20.6682  -41.3830   -1.7055 C   0  0  0  0  0  0  0  0  0  0  0  0
  -18.8774  -37.3048  -10.2801 F   0  0  0  0  0  0  0  0  0  0  0  0
  -19.0072  -38.2236   -9.2836 C   0  0  0  0  0  0  0  0  0  0  0  0
  -14.3232  -38.6044  -12.4816 S   0  0  2  0  0  6  0  0  0  0  0  0
  -15.1242  -41.1077   -7.8576 S   0  0  0  0  0  0  0  0  0  0  0  0
  -20.2918  -38.5947   -8.8817 C   0  0  0  0  0  0  0  0  0  0  0  0
  -20.5215  -39.4425   -7.8247 C   0  0  0  0  0  0  0  0  0  0  0  0
  -21.9338  -40.1318   -5.9278 O   0  0  0  0  0  0  0  0  0  0  0  0
  -22.0939  -42.2736   -3.7806 C   0  0  0  0  0  0  0  0  0  0  0  0
  -22.3059  -42.8340   -2.5979 N   0  0  0  0  0  0  0  0  0  0  0  0
  -21.5860  -42.3925   -1.5195 C   0  0  0  0  0  0  0  0  0  0  0  0
  -20.4902  -40.8447   -2.9374 N   0  0  0  0  0  0  0  0  0  0  0  0
  -21.7681  -42.9420   -0.2633 O   0  0  0  0  0  0  0  0  0  0  0  0
  -21.6537  -44.3321   -0.0554 C   0  0  0  0  0  0  0  0  0  0  0  0
  -22.9004  -44.9226   -0.0566 F   0  0  0  0  0  0  0  0  0  0  0  0
  -13.7854  -39.9957   -5.6497 H   0  0  0  0  0  0  0  0  0  0  0  0
  2  1  1  6
  2  5  1  0
  2  8  1  0
 15  2  1  0
  8  3  1  0
  3  9  2  0
  3 24  1  0
  5  4  1  1
  4 24  1  0
  5  6  1  0
  5 14  1  0
  6  7  1  0
 23  7  1  1
 23 10  2  0
 14 11  1  0
 11 23  1  0
 23 12  2  0
 13 17  1  0
 18 13  1  0
 16 15  2  0
 15 22  1  0
 17 16  1  0
 17 26  2  0
 19 18  1  0
 18 27  2  0
 19 28  1  0
 31 19  2  0
 20 30  2  0
 20 31  1  0
 22 21  1  0
 22 25  2  0
 25 26  1  0
 28 29  2  0
 29 30  1  0
 30 32  1  0
 32 33  1  0
 33 34  1  0
  9 35  1  0
M  END
$$$$
