
     RDKit          3D

 35 38  0  0  0  0  0  0  0  0999 V2000
  -16.9183  -37.1043   -9.6025 C   0  0  0  0  0  0  0  0  0  0  0  0
  -17.1010  -38.4889   -9.0935 C   0  0  1  0  0  0  0  0  0  0  0  0
  -16.0372  -39.6860   -7.0690 C   0  0  0  0  0  0  0  0  0  0  0  0
  -17.3944  -40.8487   -9.2720 C   0  0  0  0  0  0  0  0  0  0  0  0
  -16.6754  -39.6394   -9.8932 C   0  0  2  0  0  0  0  0  0  0  0  0
  -15.2069  -40.0266   -9.7423 C   0  0  0  0  0  0  0  0  0  0  0  0
  -14.2277  -38.9863  -10.1270 C   0  0  0  0  0  0  0  0  0  0  0  0
  -16.3182  -38.5472   -7.8398 N   0  0  0  0  0  0  0  0  0  0  0  0
  -15.3688  -39.6475   -5.9828 N   0  0  0  0  0  0  0  0  0  0  0  0
  -14.3084  -36.9600  -11.9269 O   0  0  0  0  0  0  0  0  0  0  0  0
  -16.2208  -38.8212  -12.2482 C   0  0  0  0  0  0  0  0  0  0  0  0
  -13.5641  -39.1080  -12.6906 O   0  0  0  0  0  0  0  0  0  0  0  0
  -20.7792  -40.5477   -6.5051 N   0  0  0  0  0  0  0  0  0  0  0  0
  -16.9325  -39.7670  -11.3439 C   0  0  0  0  0  0  0  0  0  0  0  0
  -18.5707  -38.5692   -8.7256 C   0  0  0  0  0  0  0  0  0  0  0  0
  -18.9663  -39.5032   -7.7630 C   0  0  0  0  0  0  0  0  0  0  0  0
  -20.2921  -39.6295   -7.4615 C   0  0  0  0  0  0  0  0  0  0  0  0
  -21.5165  -40.2911   -5.3407 C   0  0  0  0  0  0  0  0  0  0  0  0
  -21.2223  -41.0223   -4.0817 C   0  0  0  0  0  0  0  0  0  0  0  0
  -19.9565  -41.4028   -2.1395 C   0  0  0  0  0  0  0  0  0  0  0  0
  -19.1052  -36.7947  -10.2604 F   0  0  0  0  0  0  0  0  0  0  0  0
  -19.4742  -37.7675   -9.3782 C   0  0  0  0  0  0  0  0  0  0  0  0
  -14.5718  -38.4533  -11.7518 S   0  0  2  0  0  6  0  0  0  0  0  0
  -16.6585  -41.2521   -7.6620 S   0  0  0  0  0  0  0  0  0  0  0  0
  -20.8211  -37.9122   -9.0575 C   0  0  0  0  0  0  0  0  0  0  0  0
  -21.2335  -38.8212   -8.1202 C   0  0  0  0  0  0  0  0  0  0  0  0
  -22.4268  -39.4401   -5.3673 O   0  0  0  0  0  0  0  0  0  0  0  0
  -22.0400  -42.0620   -3.7244 C   0  0  0  0  0  0  0  0  0  0  0  0
  -21.8020  -42.7562   -2.5783 N   0  0  0  0  0  0  0  0  0  0  0  0
  -20.7741  -42.4435   -1.7808 C   0  0  0  0  0  0  0  0  0  0  0  0
  -20.2031  -40.7185   -3.2829 N   0  0  0  0  0  0  0  0  0  0  0  0
  -20.5526  -43.1701   -0.6139 O   0  0  0  0  0  0  0  0  0  0  0  0
  -21.4223  -43.0409    0.4851 C   0  0  0  0  0  0  0  0  0  0  0  0
  -22.5433  -43.8199    0.2826 F   0  0  0  0  0  0  0  0  0  0  0  0
  -15.1624  -40.4591   -5.3775 H   0  0  0  0  0  0  0  0  0  0  0  0
  1  2  1  6
  2  5  1  0
  2  8  1  0
  2 15  1  1
  8  3  1  0
  3  9  2  0
  3 24  1  0
  5  4  1  1
  4 24  1  6
  6  5  1  1
 14  5  1  1
  7  6  1  1
 23  7  1  1
 23 10  2  0
 11 14  1  1
 11 23  1  0
 23 12  2  0
 13 17  1  0
 18 13  1  0
 16 15  2  0
 15 22  1  0
 17 16  1  0
 17 26  2  0
 19 18  1  0
 18 27  2  0
 19 28  1  0
 31 19  2  0
 20 30  2  0
 20 31  1  0
 22 21  1  0
 22 25  2  0
 25 26  1  0
 28 29  2  0
 29 30  1  0
 30 32  1  0
 32 33  1  0
 33 34  1  6
  9 35  1  0
M  END
$$$$
