
     RDKit          3D

 35 38  0  0  0  0  0  0  0  0999 V2000
  -16.5273  -38.7379  -11.1005 C   0  0  0  0  0  0  0  0  0  0  0  0
  -16.6663  -39.3114   -9.7362 C   0  0  1  0  0  0  0  0  0  0  0  0
  -15.1879  -39.0288   -7.6392 C   0  0  0  0  0  0  0  0  0  0  0  0
  -17.1662  -41.0016   -8.1300 C   0  0  0  0  0  0  0  0  0  0  0  0
  -16.5548  -40.7553   -9.5196 C   0  0  2  0  0  0  0  0  0  0  0  0
  -15.1315  -41.2764   -9.3411 C   0  0  0  0  0  0  0  0  0  0  0  0
  -14.2188  -41.0501  -10.4835 C   0  0  0  0  0  0  0  0  0  0  0  0
  -15.5824  -38.6915   -8.9432 N   0  0  0  0  0  0  0  0  0  0  0  0
  -14.2517  -38.4275   -7.0144 N   0  0  0  0  0  0  0  0  0  0  0  0
  -14.6328  -40.8415  -13.1550 O   0  0  0  0  0  0  0  0  0  0  0  0
  -16.6904  -41.8914  -11.7808 C   0  0  0  0  0  0  0  0  0  0  0  0
  -14.2775  -43.0312  -12.2440 O   0  0  0  0  0  0  0  0  0  0  0  0
  -21.0661  -40.0062   -7.5852 N   0  0  0  0  0  0  0  0  0  0  0  0
  -17.2000  -41.7646  -10.3868 C   0  0  0  0  0  0  0  0  0  0  0  0
  -17.9854  -38.7636   -9.2247 C   0  0  0  0  0  0  0  0  0  0  0  0
  -18.8834  -39.6475   -8.6182 C   0  0  0  0  0  0  0  0  0  0  0  0
  -20.0990  -39.1835   -8.2041 C   0  0  0  0  0  0  0  0  0  0  0  0
  -21.8410  -39.7429   -6.4471 C   0  0  0  0  0  0  0  0  0  0  0  0
  -21.9165  -40.7281   -5.3380 C   0  0  0  0  0  0  0  0  0  0  0  0
  -23.1004  -41.9987   -3.7559 C   0  0  0  0  0  0  0  0  0  0  0  0
  -17.3947  -36.5400   -9.9296 F   0  0  0  0  0  0  0  0  0  0  0  0
  -18.2841  -37.4371   -9.4150 C   0  0  0  0  0  0  0  0  0  0  0  0
  -14.9466  -41.6973  -11.9306 S   0  0  2  0  0  6  0  0  0  0  0  0
  -16.0567  -40.3690   -6.8397 S   0  0  0  0  0  0  0  0  0  0  0  0
  -19.5288  -36.9839   -8.9869 C   0  0  0  0  0  0  0  0  0  0  0  0
  -20.4261  -37.8303   -8.3926 C   0  0  0  0  0  0  0  0  0  0  0  0
  -22.4709  -38.6701   -6.3698 O   0  0  0  0  0  0  0  0  0  0  0  0
  -20.7516  -41.2842   -4.8785 C   0  0  0  0  0  0  0  0  0  0  0  0
  -20.7805  -42.1900   -3.8633 N   0  0  0  0  0  0  0  0  0  0  0  0
  -21.9353  -42.5559   -3.2950 C   0  0  0  0  0  0  0  0  0  0  0  0
  -23.0597  -41.0978   -4.7673 N   0  0  0  0  0  0  0  0  0  0  0  0
  -21.9369  -43.4846   -2.2576 O   0  0  0  0  0  0  0  0  0  0  0  0
  -21.0351  -44.5651   -2.2635 C   0  0  0  0  0  0  0  0  0  0  0  0
  -21.4817  -45.5364   -3.1361 F   0  0  0  0  0  0  0  0  0  0  0  0
  -14.1135  -38.4356   -5.9905 H   0  0  0  0  0  0  0  0  0  0  0  0
  1  2  1  6
  2  5  1  0
  2  8  1  0
  2 15  1  1
  8  3  1  0
  3  9  2  0
  3 24  1  0
  5  4  1  1
  4 24  1  6
  6  5  1  1
 14  5  1  1
  7  6  1  1
 23  7  1  1
 23 10  2  0
 11 14  1  1
 11 23  1  0
 23 12  2  0
 13 17  1  0
 18 13  1  0
 16 15  2  0
 15 22  1  0
 17 16  1  0
 17 26  2  0
 19 18  1  0
 18 27  2  0
 19 28  1  0
 31 19  2  0
 20 30  2  0
 20 31  1  0
 22 21  1  0
 22 25  2  0
 25 26  1  0
 28 29  2  0
 29 30  1  0
 30 32  1  0
 32 33  1  0
 33 34  1  6
  9 35  1  0
M  END
$$$$
