
     RDKit          3D

 35 38  0  0  0  0  0  0  0  0999 V2000
  -16.8710  -37.1846   -9.9438 C   0  0  0  0  0  0  0  0  0  0  0  0
  -17.1118  -38.5098   -9.2935 C   0  0  1  0  0  0  0  0  0  0  0  0
  -15.5925  -39.4639   -7.4385 C   0  0  0  0  0  0  0  0  0  0  0  0
  -16.9507  -40.9901   -9.4020 C   0  0  0  0  0  0  0  0  0  0  0  0
  -16.6241  -39.6431  -10.1321 C   0  0  2  0  0  0  0  0  0  0  0  0
  -15.1180  -39.5674  -10.2211 C   0  0  0  0  0  0  0  0  0  0  0  0
  -14.5120  -40.0171  -11.5178 C   0  0  0  0  0  0  0  0  0  0  0  0
  -16.3060  -38.4690   -8.0499 N   0  0  0  0  0  0  0  0  0  0  0  0
  -14.7852  -39.2755   -6.4830 N   0  0  0  0  0  0  0  0  0  0  0  0
  -14.5045  -37.5791  -12.7031 O   0  0  0  0  0  0  0  0  0  0  0  0
  -16.8515  -38.8528  -12.5398 C   0  0  0  0  0  0  0  0  0  0  0  0
  -14.8021  -39.5484  -14.1686 O   0  0  0  0  0  0  0  0  0  0  0  0
  -20.4256  -40.8591   -6.3947 N   0  0  0  0  0  0  0  0  0  0  0  0
  -17.2096  -39.8392  -11.4632 C   0  0  0  0  0  0  0  0  0  0  0  0
  -18.5060  -38.6461   -8.7818 C   0  0  0  0  0  0  0  0  0  0  0  0
  -18.8029  -39.6266   -7.8114 C   0  0  0  0  0  0  0  0  0  0  0  0
  -20.0697  -39.8931   -7.3654 C   0  0  0  0  0  0  0  0  0  0  0  0
  -21.6205  -40.7199   -5.6273 C   0  0  0  0  0  0  0  0  0  0  0  0
  -21.7904  -41.3862   -4.3416 C   0  0  0  0  0  0  0  0  0  0  0  0
  -23.0636  -42.5772   -2.7621 C   0  0  0  0  0  0  0  0  0  0  0  0
  -19.3446  -36.8832  -10.1729 F   0  0  0  0  0  0  0  0  0  0  0  0
  -19.5357  -37.9159   -9.3063 C   0  0  0  0  0  0  0  0  0  0  0  0
  -15.0659  -38.9457  -12.8152 S   0  0  2  0  0  6  0  0  0  0  0  0
  -15.8126  -41.1593   -8.0368 S   0  0  0  0  0  0  0  0  0  0  0  0
  -20.8317  -38.1808   -8.8597 C   0  0  0  0  0  0  0  0  0  0  0  0
  -21.1085  -39.1403   -7.9155 C   0  0  0  0  0  0  0  0  0  0  0  0
  -22.5290  -40.0002   -6.1023 O   0  0  0  0  0  0  0  0  0  0  0  0
  -20.7582  -41.4052   -3.4280 C   0  0  0  0  0  0  0  0  0  0  0  0
  -20.8415  -41.9724   -2.2326 N   0  0  0  0  0  0  0  0  0  0  0  0
  -22.0145  -42.5797   -1.8702 C   0  0  0  0  0  0  0  0  0  0  0  0
  -22.9252  -41.9817   -3.9726 N   0  0  0  0  0  0  0  0  0  0  0  0
  -22.1549  -43.1869   -0.6355 O   0  0  0  0  0  0  0  0  0  0  0  0
  -21.1966  -42.9949    0.3812 C   0  0  0  0  0  0  0  0  0  0  0  0
  -21.2114  -41.6854    0.8147 F   0  0  0  0  0  0  0  0  0  0  0  0
  -14.9486  -39.5631   -5.4997 H   0  0  0  0  0  0  0  0  0  0  0  0
  2  1  1  6
  2  5  1  0
  2  8  1  0
 15  2  1  0
  8  3  1  0
  3  9  2  0
  3 24  1  0
  5  4  1  1
  4 24  1  0
  5  6  1  0
  5 14  1  0
  6  7  1  0
 23  7  1  1
 23 10  2  0
 14 11  1  0
 11 23  1  0
 23 12  2  0
 13 17  1  0
 18 13  1  0
 16 15  2  0
 15 22  1  0
 17 16  1  0
 17 26  2  0
 19 18  1  0
 18 27  2  0
 19 28  1  0
 31 19  2  0
 20 30  2  0
 20 31  1  0
 22 21  1  0
 22 25  2  0
 25 26  1  0
 28 29  2  0
 29 30  1  0
 30 32  1  0
 32 33  1  0
 33 34  1  0
  9 35  1  0
M  END
$$$$
