
     RDKit          3D

 35 38  0  0  0  0  0  0  0  0999 V2000
  -16.8620  -37.4682   -9.9350 C   0  0  0  0  0  0  0  0  0  0  0  0
  -17.1448  -38.7343   -9.2093 C   0  0  1  0  0  0  0  0  0  0  0  0
  -16.0108  -39.7670   -7.1332 C   0  0  0  0  0  0  0  0  0  0  0  0
  -17.7226  -41.0387   -9.0037 C   0  0  0  0  0  0  0  0  0  0  0  0
  -16.9424  -40.0291   -9.8624 C   0  0  2  0  0  0  0  0  0  0  0  0
  -15.5199  -40.5771   -9.7892 C   0  0  0  0  0  0  0  0  0  0  0  0
  -14.4761  -39.7342  -10.4132 C   0  0  0  0  0  0  0  0  0  0  0  0
  -16.2424  -38.7189   -8.0375 N   0  0  0  0  0  0  0  0  0  0  0  0
  -15.2284  -39.6651   -6.1303 N   0  0  0  0  0  0  0  0  0  0  0  0
  -14.5206  -37.9824  -12.4822 O   0  0  0  0  0  0  0  0  0  0  0  0
  -16.6559  -39.6090  -12.3451 C   0  0  0  0  0  0  0  0  0  0  0  0
  -14.1130  -40.2928  -12.9791 O   0  0  0  0  0  0  0  0  0  0  0  0
  -20.5562  -39.4122   -5.6921 N   0  0  0  0  0  0  0  0  0  0  0  0
  -17.3683  -40.3217  -11.2480 C   0  0  0  0  0  0  0  0  0  0  0  0
  -18.5655  -38.5736   -8.7015 C   0  0  0  0  0  0  0  0  0  0  0  0
  -18.8722  -39.0438   -7.4207 C   0  0  0  0  0  0  0  0  0  0  0  0
  -20.1583  -38.9601   -6.9697 C   0  0  0  0  0  0  0  0  0  0  0  0
  -21.3680  -40.5070   -5.3641 C   0  0  0  0  0  0  0  0  0  0  0  0
  -21.3475  -41.0815   -3.9944 C   0  0  0  0  0  0  0  0  0  0  0  0
  -20.5538  -41.1750   -1.7853 C   0  0  0  0  0  0  0  0  0  0  0  0
  -19.2274  -37.4855  -10.7430 F   0  0  0  0  0  0  0  0  0  0  0  0
  -19.5176  -38.0237   -9.5237 C   0  0  0  0  0  0  0  0  0  0  0  0
  -14.9317  -39.3910  -12.0616 S   0  0  2  0  0  6  0  0  0  0  0  0
  -16.8670  -41.3071   -7.4251 S   0  0  0  0  0  0  0  0  0  0  0  0
  -20.8230  -37.9483   -9.0459 C   0  0  0  0  0  0  0  0  0  0  0  0
  -21.1486  -38.4040   -7.7965 C   0  0  0  0  0  0  0  0  0  0  0  0
  -22.1126  -40.9997   -6.2339 O   0  0  0  0  0  0  0  0  0  0  0  0
  -22.1874  -42.1265   -3.7123 C   0  0  0  0  0  0  0  0  0  0  0  0
  -22.1966  -42.6797   -2.4689 N   0  0  0  0  0  0  0  0  0  0  0  0
  -21.3939  -42.2210   -1.5016 C   0  0  0  0  0  0  0  0  0  0  0  0
  -20.5532  -40.6320   -3.0268 N   0  0  0  0  0  0  0  0  0  0  0  0
  -21.4228  -42.8051   -0.2380 O   0  0  0  0  0  0  0  0  0  0  0  0
  -21.2890  -44.1984   -0.0908 C   0  0  0  0  0  0  0  0  0  0  0  0
  -20.7069  -44.7300   -1.2235 F   0  0  0  0  0  0  0  0  0  0  0  0
  -15.2361  -40.2796   -5.2998 H   0  0  0  0  0  0  0  0  0  0  0  0
  1  2  1  6
  2  5  1  0
  2  8  1  0
  2 15  1  1
  8  3  1  0
  3  9  2  0
  3 24  1  0
  5  4  1  1
  4 24  1  6
  6  5  1  1
 14  5  1  1
  7  6  1  1
 23  7  1  1
 23 10  2  0
 11 14  1  1
 11 23  1  0
 23 12  2  0
 13 17  1  0
 18 13  1  0
 16 15  2  0
 15 22  1  0
 17 16  1  0
 17 26  2  0
 19 18  1  0
 18 27  2  0
 19 28  1  0
 31 19  2  0
 20 30  2  0
 20 31  1  0
 22 21  1  0
 22 25  2  0
 25 26  1  0
 28 29  2  0
 29 30  1  0
 30 32  1  0
 32 33  1  0
 33 34  1  6
  9 35  1  0
M  END
$$$$
