
     RDKit          3D

 35 38  0  0  0  0  0  0  0  0999 V2000
  -16.5147  -37.0960   -9.6345 C   0  0  0  0  0  0  0  0  0  0  0  0
  -16.7318  -38.4876   -9.1592 C   0  0  1  0  0  0  0  0  0  0  0  0
  -15.6231  -39.7926   -7.2276 C   0  0  0  0  0  0  0  0  0  0  0  0
  -17.1348  -40.8262   -9.3939 C   0  0  0  0  0  0  0  0  0  0  0  0
  -16.3956  -39.6283  -10.0136 C   0  0  2  0  0  0  0  0  0  0  0  0
  -14.9395  -40.0807   -9.9482 C   0  0  0  0  0  0  0  0  0  0  0  0
  -13.9363  -39.0700  -10.3498 C   0  0  0  0  0  0  0  0  0  0  0  0
  -15.8920  -38.6188   -7.9485 N   0  0  0  0  0  0  0  0  0  0  0  0
  -14.9014  -39.8170   -6.1755 N   0  0  0  0  0  0  0  0  0  0  0  0
  -14.0174  -36.9851  -12.0813 O   0  0  0  0  0  0  0  0  0  0  0  0
  -16.0215  -38.7539  -12.3626 C   0  0  0  0  0  0  0  0  0  0  0  0
  -13.4044  -39.1362  -12.9460 O   0  0  0  0  0  0  0  0  0  0  0  0
  -20.1803  -39.5555   -5.7776 N   0  0  0  0  0  0  0  0  0  0  0  0
  -16.7284  -39.6982  -11.4528 C   0  0  0  0  0  0  0  0  0  0  0  0
  -18.1839  -38.5187   -8.7208 C   0  0  0  0  0  0  0  0  0  0  0  0
  -18.4831  -38.9947   -7.4403 C   0  0  0  0  0  0  0  0  0  0  0  0
  -19.7885  -39.0842   -7.0502 C   0  0  0  0  0  0  0  0  0  0  0  0
  -21.2341  -40.4201   -5.4502 C   0  0  0  0  0  0  0  0  0  0  0  0
  -21.1905  -41.2296   -4.2054 C   0  0  0  0  0  0  0  0  0  0  0  0
  -20.1709  -41.9261   -2.2070 C   0  0  0  0  0  0  0  0  0  0  0  0
  -18.8928  -37.5894  -10.8240 F   0  0  0  0  0  0  0  0  0  0  0  0
  -19.1630  -38.1320   -9.6020 C   0  0  0  0  0  0  0  0  0  0  0  0
  -14.3360  -38.4710  -11.9385 S   0  0  2  0  0  6  0  0  0  0  0  0
  -16.3393  -41.3116   -7.8358 S   0  0  0  0  0  0  0  0  0  0  0  0
  -20.4877  -38.2317   -9.1858 C   0  0  0  0  0  0  0  0  0  0  0  0
  -20.8061  -38.6970   -7.9380 C   0  0  0  0  0  0  0  0  0  0  0  0
  -22.2151  -40.5069   -6.2143 O   0  0  0  0  0  0  0  0  0  0  0  0
  -22.2358  -42.0744   -3.9394 C   0  0  0  0  0  0  0  0  0  0  0  0
  -22.2312  -42.8327   -2.8093 N   0  0  0  0  0  0  0  0  0  0  0  0
  -21.2163  -42.7721   -1.9395 C   0  0  0  0  0  0  0  0  0  0  0  0
  -20.1860  -41.1758   -3.3352 N   0  0  0  0  0  0  0  0  0  0  0  0
  -21.2363  -43.5588   -0.7909 O   0  0  0  0  0  0  0  0  0  0  0  0
  -21.1954  -42.9643    0.4841 C   0  0  0  0  0  0  0  0  0  0  0  0
  -19.9703  -43.2095    1.0703 F   0  0  0  0  0  0  0  0  0  0  0  0
  -14.2446  -40.5716   -5.9172 H   0  0  0  0  0  0  0  0  0  0  0  0
  1  2  1  6
  2  5  1  0
  2  8  1  0
  2 15  1  1
  8  3  1  0
  3  9  2  0
  3 24  1  0
  5  4  1  1
  4 24  1  6
  6  5  1  1
 14  5  1  1
  7  6  1  1
 23  7  1  1
 23 10  2  0
 11 14  1  1
 11 23  1  0
 23 12  2  0
 13 17  1  0
 18 13  1  0
 16 15  2  0
 15 22  1  0
 17 16  1  0
 17 26  2  0
 19 18  1  0
 18 27  2  0
 19 28  1  0
 31 19  2  0
 20 30  2  0
 20 31  1  0
 22 21  1  0
 22 25  2  0
 25 26  1  0
 28 29  2  0
 29 30  1  0
 30 32  1  0
 32 33  1  0
 33 34  1  6
  9 35  1  0
M  END
$$$$
