
     RDKit          3D

 35 38  0  0  0  0  0  0  0  0999 V2000
  -16.4386  -37.5126   -9.8071 C   0  0  0  0  0  0  0  0  0  0  0  0
  -16.9051  -38.7904   -9.2079 C   0  0  1  0  0  0  0  0  0  0  0  0
  -16.0512  -40.0862   -7.1453 C   0  0  0  0  0  0  0  0  0  0  0  0
  -17.7275  -41.0286   -9.2306 C   0  0  0  0  0  0  0  0  0  0  0  0
  -16.7830  -40.0487   -9.9468 C   0  0  2  0  0  0  0  0  0  0  0  0
  -15.4336  -40.7495   -9.8156 C   0  0  0  0  0  0  0  0  0  0  0  0
  -14.2634  -39.9801  -10.2930 C   0  0  0  0  0  0  0  0  0  0  0  0
  -16.1024  -38.9566   -7.9767 N   0  0  0  0  0  0  0  0  0  0  0  0
  -15.3452  -40.1416   -6.0837 N   0  0  0  0  0  0  0  0  0  0  0  0
  -13.9648  -38.0882  -12.2121 O   0  0  0  0  0  0  0  0  0  0  0  0
  -16.2577  -39.4827  -12.3605 C   0  0  0  0  0  0  0  0  0  0  0  0
  -13.7544  -40.3868  -12.8626 O   0  0  0  0  0  0  0  0  0  0  0  0
  -21.1670  -40.3064   -7.2062 N   0  0  0  0  0  0  0  0  0  0  0  0
  -17.1240  -40.1928  -11.3785 C   0  0  0  0  0  0  0  0  0  0  0  0
  -18.3383  -38.5160   -8.7925 C   0  0  0  0  0  0  0  0  0  0  0  0
  -19.0577  -39.5387   -8.1662 C   0  0  0  0  0  0  0  0  0  0  0  0
  -20.3663  -39.3289   -7.8377 C   0  0  0  0  0  0  0  0  0  0  0  0
  -21.8848  -41.3603   -7.7886 C   0  0  0  0  0  0  0  0  0  0  0  0
  -22.4010  -42.4763   -6.9553 C   0  0  0  0  0  0  0  0  0  0  0  0
  -22.3948  -43.8083   -5.0202 C   0  0  0  0  0  0  0  0  0  0  0  0
  -18.2018  -36.2614   -9.6219 F   0  0  0  0  0  0  0  0  0  0  0  0
  -18.9047  -37.3003   -9.0859 C   0  0  0  0  0  0  0  0  0  0  0  0
  -14.5485  -39.4715  -11.9369 S   0  0  2  0  0  6  0  0  0  0  0  0
  -17.0325  -41.5007   -7.6211 S   0  0  0  0  0  0  0  0  0  0  0  0
  -20.2402  -37.1066   -8.7440 C   0  0  0  0  0  0  0  0  0  0  0  0
  -20.9662  -38.0933   -8.1323 C   0  0  0  0  0  0  0  0  0  0  0  0
  -22.0891  -41.3563   -9.0182 O   0  0  0  0  0  0  0  0  0  0  0  0
  -23.4388  -43.2276   -7.4410 C   0  0  0  0  0  0  0  0  0  0  0  0
  -23.9383  -44.2588   -6.7068 N   0  0  0  0  0  0  0  0  0  0  0  0
  -23.4333  -44.5610   -5.5051 C   0  0  0  0  0  0  0  0  0  0  0  0
  -21.9054  -42.7838   -5.7599 N   0  0  0  0  0  0  0  0  0  0  0  0
  -23.9627  -45.6214   -4.7744 O   0  0  0  0  0  0  0  0  0  0  0  0
  -24.8277  -46.5491   -5.3844 C   0  0  0  0  0  0  0  0  0  0  0  0
  -24.1021  -47.6352   -5.8300 F   0  0  0  0  0  0  0  0  0  0  0  0
  -15.4808  -40.8112   -5.3086 H   0  0  0  0  0  0  0  0  0  0  0  0
  1  2  1  6
  2  5  1  0
  2  8  1  0
  2 15  1  1
  8  3  1  0
  3  9  2  0
  3 24  1  0
  5  4  1  1
  4 24  1  6
  6  5  1  1
 14  5  1  1
  7  6  1  1
 23  7  1  1
 23 10  2  0
 11 14  1  1
 11 23  1  0
 23 12  2  0
 13 17  1  0
 18 13  1  0
 16 15  2  0
 15 22  1  0
 17 16  1  0
 17 26  2  0
 19 18  1  0
 18 27  2  0
 19 28  1  0
 31 19  2  0
 20 30  2  0
 20 31  1  0
 22 21  1  0
 22 25  2  0
 25 26  1  0
 28 29  2  0
 29 30  1  0
 30 32  1  0
 32 33  1  0
 33 34  1  6
  9 35  1  0
M  END
$$$$
