
     RDKit          3D

 35 38  0  0  0  0  0  0  0  0999 V2000
  -16.9257  -37.7669  -10.1791 C   0  0  0  0  0  0  0  0  0  0  0  0
  -16.8575  -38.9811   -9.3242 C   0  0  1  0  0  0  0  0  0  0  0  0
  -15.2551  -39.5846   -7.3926 C   0  0  0  0  0  0  0  0  0  0  0  0
  -16.9607  -41.3167   -8.8546 C   0  0  0  0  0  0  0  0  0  0  0  0
  -16.5181  -40.2824   -9.9033 C   0  0  2  0  0  0  0  0  0  0  0  0
  -15.0239  -40.5682  -10.0253 C   0  0  0  0  0  0  0  0  0  0  0  0
  -14.2594  -39.6279  -10.8742 C   0  0  0  0  0  0  0  0  0  0  0  0
  -15.8092  -38.6906   -8.3219 N   0  0  0  0  0  0  0  0  0  0  0  0
  -14.3646  -39.2474   -6.5432 N   0  0  0  0  0  0  0  0  0  0  0  0
  -14.9358  -38.1324  -13.0324 O   0  0  0  0  0  0  0  0  0  0  0  0
  -16.6877  -40.0777  -12.4235 C   0  0  0  0  0  0  0  0  0  0  0  0
  -14.1855  -40.3777  -13.4159 O   0  0  0  0  0  0  0  0  0  0  0  0
  -19.7382  -40.7049   -5.6912 N   0  0  0  0  0  0  0  0  0  0  0  0
  -17.0840  -40.7849  -11.1738 C   0  0  0  0  0  0  0  0  0  0  0  0
  -18.1915  -39.0146   -8.6022 C   0  0  0  0  0  0  0  0  0  0  0  0
  -18.3149  -39.8235   -7.4681 C   0  0  0  0  0  0  0  0  0  0  0  0
  -19.5240  -39.9109   -6.8396 C   0  0  0  0  0  0  0  0  0  0  0  0
  -20.9448  -40.9937   -5.0387 C   0  0  0  0  0  0  0  0  0  0  0  0
  -20.9467  -41.5437   -3.6589 C   0  0  0  0  0  0  0  0  0  0  0  0
  -20.0605  -41.7394   -1.4920 C   0  0  0  0  0  0  0  0  0  0  0  0
  -19.1330  -37.4407  -10.1598 F   0  0  0  0  0  0  0  0  0  0  0  0
  -19.2490  -38.2980   -9.1052 C   0  0  0  0  0  0  0  0  0  0  0  0
  -15.0112  -39.5396  -12.4457 S   0  0  2  0  0  6  0  0  0  0  0  0
  -15.8446  -41.2704   -7.4234 S   0  0  0  0  0  0  0  0  0  0  0  0
  -20.4733  -38.4013   -8.4508 C   0  0  0  0  0  0  0  0  0  0  0  0
  -20.6199  -39.1885   -7.3402 C   0  0  0  0  0  0  0  0  0  0  0  0
  -22.0240  -40.7851   -5.6264 O   0  0  0  0  0  0  0  0  0  0  0  0
  -21.9344  -42.4266   -3.3096 C   0  0  0  0  0  0  0  0  0  0  0  0
  -21.9689  -42.9524   -2.0548 N   0  0  0  0  0  0  0  0  0  0  0  0
  -21.0484  -42.6232   -1.1411 C   0  0  0  0  0  0  0  0  0  0  0  0
  -20.0361  -41.2221   -2.7443 N   0  0  0  0  0  0  0  0  0  0  0  0
  -21.1064  -43.1758    0.1355 O   0  0  0  0  0  0  0  0  0  0  0  0
  -21.4585  -44.5266    0.3150 C   0  0  0  0  0  0  0  0  0  0  0  0
  -20.3257  -45.3124    0.2549 F   0  0  0  0  0  0  0  0  0  0  0  0
  -14.1435  -39.7580   -5.6726 H   0  0  0  0  0  0  0  0  0  0  0  0
  1  2  1  6
  2  5  1  0
  2  8  1  0
  2 15  1  1
  8  3  1  0
  3  9  2  0
  3 24  1  0
  5  4  1  1
  4 24  1  6
  6  5  1  1
 14  5  1  1
  7  6  1  1
 23  7  1  1
 23 10  2  0
 11 14  1  1
 11 23  1  0
 23 12  2  0
 13 17  1  0
 18 13  1  0
 16 15  2  0
 15 22  1  0
 17 16  1  0
 17 26  2  0
 19 18  1  0
 18 27  2  0
 19 28  1  0
 31 19  2  0
 20 30  2  0
 20 31  1  0
 22 21  1  0
 22 25  2  0
 25 26  1  0
 28 29  2  0
 29 30  1  0
 30 32  1  0
 32 33  1  0
 33 34  1  6
  9 35  1  0
M  END
$$$$
