
     RDKit          3D

 35 38  0  0  0  0  0  0  0  0999 V2000
  -16.3945  -37.1161   -9.6539 C   0  0  0  0  0  0  0  0  0  0  0  0
  -16.8795  -38.3987   -9.0565 C   0  0  1  0  0  0  0  0  0  0  0  0
  -15.7412  -39.5286   -7.0348 C   0  0  0  0  0  0  0  0  0  0  0  0
  -17.0149  -40.8801   -9.1749 C   0  0  0  0  0  0  0  0  0  0  0  0
  -16.4327  -39.5869   -9.8402 C   0  0  2  0  0  0  0  0  0  0  0  0
  -14.9300  -39.6999   -9.7351 C   0  0  0  0  0  0  0  0  0  0  0  0
  -14.2231  -40.2261  -10.9493 C   0  0  0  0  0  0  0  0  0  0  0  0
  -16.2412  -38.4545   -7.7197 N   0  0  0  0  0  0  0  0  0  0  0  0
  -15.0461  -39.4391   -5.9817 N   0  0  0  0  0  0  0  0  0  0  0  0
  -13.7609  -37.8122  -12.0929 O   0  0  0  0  0  0  0  0  0  0  0  0
  -16.2493  -38.7825  -12.2470 C   0  0  0  0  0  0  0  0  0  0  0  0
  -14.1101  -39.7339  -13.6093 O   0  0  0  0  0  0  0  0  0  0  0  0
  -20.5811  -39.1324   -5.7910 N   0  0  0  0  0  0  0  0  0  0  0  0
  -16.8623  -39.7129  -11.2376 C   0  0  0  0  0  0  0  0  0  0  0  0
  -18.3339  -38.3583   -8.7289 C   0  0  0  0  0  0  0  0  0  0  0  0
  -18.7691  -38.7022   -7.4314 C   0  0  0  0  0  0  0  0  0  0  0  0
  -20.0875  -38.7962   -7.0737 C   0  0  0  0  0  0  0  0  0  0  0  0
  -21.3591  -40.3117   -5.5920 C   0  0  0  0  0  0  0  0  0  0  0  0
  -21.3921  -41.0035   -4.3090 C   0  0  0  0  0  0  0  0  0  0  0  0
  -20.5605  -41.4372   -2.1515 C   0  0  0  0  0  0  0  0  0  0  0  0
  -18.9610  -37.6658  -10.9365 F   0  0  0  0  0  0  0  0  0  0  0  0
  -19.2761  -38.0997   -9.6849 C   0  0  0  0  0  0  0  0  0  0  0  0
  -14.4686  -39.0985  -12.2931 S   0  0  2  0  0  6  0  0  0  0  0  0
  -16.0913  -41.1853   -7.6778 S   0  0  0  0  0  0  0  0  0  0  0  0
  -20.6234  -38.1945   -9.3313 C   0  0  0  0  0  0  0  0  0  0  0  0
  -21.0349  -38.5327   -8.0643 C   0  0  0  0  0  0  0  0  0  0  0  0
  -22.0176  -40.7384   -6.5684 O   0  0  0  0  0  0  0  0  0  0  0  0
  -22.3428  -41.9722   -4.0671 C   0  0  0  0  0  0  0  0  0  0  0  0
  -22.4257  -42.6581   -2.9355 N   0  0  0  0  0  0  0  0  0  0  0  0
  -21.5220  -42.3998   -1.9392 C   0  0  0  0  0  0  0  0  0  0  0  0
  -20.5201  -40.7650   -3.3286 N   0  0  0  0  0  0  0  0  0  0  0  0
  -21.5638  -43.0858   -0.7389 O   0  0  0  0  0  0  0  0  0  0  0  0
  -20.5951  -44.0619   -0.4264 C   0  0  0  0  0  0  0  0  0  0  0  0
  -19.7055  -43.5744    0.5084 F   0  0  0  0  0  0  0  0  0  0  0  0
  -15.4006  -39.5943   -5.0191 H   0  0  0  0  0  0  0  0  0  0  0  0
  2  1  1  6
  2  5  1  0
  2  8  1  0
 15  2  1  0
  8  3  1  0
  3  9  2  0
  3 24  1  0
  5  4  1  1
  4 24  1  0
  5  6  1  0
  5 14  1  0
  6  7  1  0
 23  7  1  1
 23 10  2  0
 14 11  1  0
 11 23  1  0
 23 12  2  0
 13 17  1  0
 18 13  1  0
 16 15  2  0
 15 22  1  0
 17 16  1  0
 17 26  2  0
 19 18  1  0
 18 27  2  0
 19 28  1  0
 31 19  2  0
 20 30  2  0
 20 31  1  0
 22 21  1  0
 22 25  2  0
 25 26  1  0
 28 29  2  0
 29 30  1  0
 30 32  1  0
 32 33  1  0
 33 34  1  0
  9 35  1  0
M  END
$$$$
