
     RDKit          3D

 30 32  0  0  0  0  0  0  0  0999 V2000
  -10.1992   24.9846    1.2708 P   0  0  2  0  0  5  0  0  0  0  0  0
   -9.7076   26.5696    1.6039 O   0  0  0  0  0  0  0  0  0  0  0  0
   -9.4986   24.0566    2.2451 O   0  0  0  0  0  0  0  0  0  0  0  0
   -9.8116   24.5441   -0.3103 O   0  0  0  0  0  0  0  0  0  0  0  0
  -12.4089   25.6506    2.8319 P   0  0  1  0  0  5  0  0  0  0  0  0
  -11.2631   26.3069    3.5862 O   0  0  0  0  0  0  0  0  0  0  0  0
  -13.5079   26.8670    2.4280 O   0  0  0  0  0  0  0  0  0  0  0  0
  -11.8658   24.8163    1.4850 O   0  0  0  0  0  0  0  0  0  0  0  0
  -14.3990   23.7086    3.1484 P   0  0  2  0  0  5  0  0  0  0  0  0
  -15.4268   24.6724    2.6009 O   0  0  0  0  0  0  0  0  0  0  0  0
  -15.1500   22.7629    4.3130 O   0  0  0  0  0  0  0  0  0  0  0  0
  -13.1310   24.5472    3.8936 O   0  0  0  0  0  0  0  0  0  0  0  0
  -13.7630   22.8166    1.8791 O   0  0  0  0  0  0  0  0  0  0  0  0
  -14.5087   22.9235    0.7158 C   0  0  0  0  0  0  0  0  0  0  0  0
  -14.3078   21.6508   -0.0748 C   0  0  1  0  0  0  0  0  0  0  0  0
  -14.8903   21.7277   -1.3389 O   0  0  0  0  0  0  0  0  0  0  0  0
  -12.8163   21.4987   -0.2931 C   0  0  1  0  0  0  0  0  0  0  0  0
  -12.3288   20.4086    0.4602 O   0  0  0  0  0  0  0  0  0  0  0  0
  -12.7691   21.1096   -1.7702 C   0  0  0  0  0  0  0  0  0  0  0  0
  -14.2041   20.6806   -1.9958 C   0  0  2  0  0  0  0  0  0  0  0  0
  -14.5493   20.5937   -3.3760 N   0  0  0  0  0  0  0  0  0  0  0  0
  -14.6322   21.5959   -4.2685 C   0  0  0  0  0  0  0  0  0  0  0  0
  -14.9896   21.1013   -5.4741 N   0  0  0  0  0  0  0  0  0  0  0  0
  -15.1403   19.7753   -5.3700 C   0  0  0  0  0  0  0  0  0  0  0  0
  -15.4916   18.8170   -6.2966 C   0  0  0  0  0  0  0  0  0  0  0  0
  -15.7820   19.1059   -7.6559 N   0  0  0  0  0  0  0  0  0  0  0  0
  -15.5585   17.5421   -5.8742 N   0  0  0  0  0  0  0  0  0  0  0  0
  -15.2880   17.2155   -4.5771 C   0  0  0  0  0  0  0  0  0  0  0  0
  -14.9471   18.1635   -3.6875 N   0  0  0  0  0  0  0  0  0  0  0  0
  -14.8603   19.4697   -4.0450 C   0  0  0  0  0  0  0  0  0  0  0  0
  1  2  1  1
  1  3  2  0
  1  4  1  0
  8  1  1  0
  5  6  2  0
  5  7  1  6
  5  8  1  0
 12  5  1  0
  9 10  2  0
  9 11  1  1
  9 12  1  0
  9 13  1  0
 13 14  1  0
 15 14  1  1
 15 16  1  0
 15 17  1  0
 16 20  1  0
 17 18  1  1
 17 19  1  0
 19 20  1  0
 20 21  1  6
 21 22  1  0
 21 30  1  0
 22 23  2  0
 23 24  1  0
 24 25  1  0
 24 30  2  0
 25 26  1  0
 25 27  2  0
 27 28  1  0
 28 29  2  0
 29 30  1  0
M  END
$$$$
