
     RDKit          3D

 30 32  0  0  0  0  0  0  0  0999 V2000
  -16.7234   25.7775   -3.6180 P   0  0  2  0  0  5  0  0  0  0  0  0
  -17.7310   25.6981   -4.9728 O   0  0  0  0  0  0  0  0  0  0  0  0
  -17.1198   24.6908   -2.6497 O   0  0  0  0  0  0  0  0  0  0  0  0
  -16.8071   27.2880   -2.8604 O   0  0  0  0  0  0  0  0  0  0  0  0
  -14.1033   26.2618   -3.0094 P   0  0  1  0  0  5  0  0  0  0  0  0
  -12.6528   25.9865   -3.3465 O   0  0  0  0  0  0  0  0  0  0  0  0
  -14.4089   27.9420   -3.0361 O   0  0  0  0  0  0  0  0  0  0  0  0
  -15.1345   25.5572   -4.1500 O   0  0  0  0  0  0  0  0  0  0  0  0
  -13.1323   25.8194   -0.4929 P   0  0  2  0  0  5  0  0  0  0  0  0
  -13.1257   27.1108    0.2834 O   0  0  0  0  0  0  0  0  0  0  0  0
  -11.7830   25.7530   -1.5406 O   0  0  0  0  0  0  0  0  0  0  0  0
  -14.5023   25.6810   -1.4736 O   0  0  0  0  0  0  0  0  0  0  0  0
  -13.1059   24.4839    0.5439 O   0  0  0  0  0  0  0  0  0  0  0  0
  -14.3918   23.8982    0.5095 C   0  0  0  0  0  0  0  0  0  0  0  0
  -14.2836   22.6127    1.2955 C   0  0  1  0  0  0  0  0  0  0  0  0
  -13.2680   21.7960    0.8561 O   0  0  0  0  0  0  0  0  0  0  0  0
  -13.7996   22.9773    2.7012 C   0  0  1  0  0  0  0  0  0  0  0  0
  -14.9057   23.3935    3.4097 O   0  0  0  0  0  0  0  0  0  0  0  0
  -13.3253   21.5987    3.1800 C   0  0  0  0  0  0  0  0  0  0  0  0
  -12.9481   20.9428    1.8941 C   0  0  2  0  0  0  0  0  0  0  0  0
  -11.5504   20.5648    1.8373 N   0  0  0  0  0  0  0  0  0  0  0  0
  -10.5165   21.3716    1.5441 C   0  0  0  0  0  0  0  0  0  0  0  0
   -9.3595   20.6767    1.5854 N   0  0  0  0  0  0  0  0  0  0  0  0
   -9.6309   19.4040    1.9077 C   0  0  0  0  0  0  0  0  0  0  0  0
   -8.8287   18.2883    2.0830 C   0  0  0  0  0  0  0  0  0  0  0  0
   -7.4160   18.3381    1.9257 N   0  0  0  0  0  0  0  0  0  0  0  0
   -9.4698   17.1468    2.4131 N   0  0  0  0  0  0  0  0  0  0  0  0
  -10.8063   17.1038    2.5609 C   0  0  0  0  0  0  0  0  0  0  0  0
  -11.5987   18.1893    2.3916 N   0  0  0  0  0  0  0  0  0  0  0  0
  -11.0009   19.3481    2.0620 C   0  0  0  0  0  0  0  0  0  0  0  0
  1  2  1  6
  1  3  2  0
  1  4  1  0
  8  1  1  0
  5  6  2  0
  5  7  1  1
  5  8  1  0
 12  5  1  0
  9 10  2  0
  9 11  1  6
  9 12  1  0
  9 13  1  0
 14 13  1  1
 14 15  1  0
 15 16  1  6
 15 17  1  0
 16 20  1  0
 17 18  1  1
 17 19  1  0
 19 20  1  6
 20 21  1  1
 21 22  1  0
 21 30  1  0
 22 23  2  0
 23 24  1  0
 24 25  1  0
 24 30  2  0
 25 26  1  0
 25 27  2  0
 27 28  1  0
 28 29  2  0
 29 30  1  0
M  END
$$$$
