
     RDKit          3D

 30 32  0  0  0  0  0  0  0  0999 V2000
  -16.7043   22.6760   -0.8195 P   0  0  2  0  0  5  0  0  0  0  0  0
  -16.2997   22.1487    0.7371 O   0  0  0  0  0  0  0  0  0  0  0  0
  -17.6724   23.8368   -0.6898 O   0  0  0  0  0  0  0  0  0  0  0  0
  -17.4185   21.4397   -1.7172 O   0  0  0  0  0  0  0  0  0  0  0  0
  -14.4417   24.2994   -0.7257 P   0  0  1  0  0  5  0  0  0  0  0  0
  -13.8617   25.4166   -1.5787 O   0  0  0  0  0  0  0  0  0  0  0  0
  -15.3673   25.0212    0.4880 O   0  0  0  0  0  0  0  0  0  0  0  0
  -15.3340   23.2194   -1.6435 O   0  0  0  0  0  0  0  0  0  0  0  0
  -13.2949   23.3382    1.6393 P   0  0  2  0  0  5  0  0  0  0  0  0
  -13.8710   21.9921    2.0149 O   0  0  0  0  0  0  0  0  0  0  0  0
  -14.3710   24.5190    2.1517 O   0  0  0  0  0  0  0  0  0  0  0  0
  -13.1336   23.4712   -0.0407 O   0  0  0  0  0  0  0  0  0  0  0  0
  -11.7723   23.4862    2.3255 O   0  0  0  0  0  0  0  0  0  0  0  0
  -10.9683   24.4022    1.6658 C   0  0  0  0  0  0  0  0  0  0  0  0
   -9.6755   23.7038    1.3107 C   0  0  1  0  0  0  0  0  0  0  0  0
   -9.7894   22.3182    1.4124 O   0  0  0  0  0  0  0  0  0  0  0  0
   -9.3952   24.0100   -0.1463 C   0  0  1  0  0  0  0  0  0  0  0  0
   -8.2750   24.8630   -0.2513 O   0  0  0  0  0  0  0  0  0  0  0  0
   -8.9891   22.6322   -0.6681 C   0  0  0  0  0  0  0  0  0  0  0  0
   -8.6815   21.9171    0.6312 C   0  0  2  0  0  0  0  0  0  0  0  0
   -8.6108   20.5011    0.4846 N   0  0  0  0  0  0  0  0  0  0  0  0
   -9.4143   19.7079   -0.2455 C   0  0  0  0  0  0  0  0  0  0  0  0
   -9.0168   18.4224   -0.1220 N   0  0  0  0  0  0  0  0  0  0  0  0
   -7.9530   18.3749    0.6891 C   0  0  0  0  0  0  0  0  0  0  0  0
   -7.1836   17.3199    1.1311 C   0  0  0  0  0  0  0  0  0  0  0  0
   -7.4145   15.9686    0.7620 N   0  0  0  0  0  0  0  0  0  0  0  0
   -6.1610   17.6025    1.9573 N   0  0  0  0  0  0  0  0  0  0  0  0
   -5.8997   18.8862    2.3400 C   0  0  0  0  0  0  0  0  0  0  0  0
   -6.6608   19.9022    1.8989 N   0  0  0  0  0  0  0  0  0  0  0  0
   -7.7086   19.6893    1.0632 C   0  0  0  0  0  0  0  0  0  0  0  0
  1  2  1  1
  1  3  2  0
  1  4  1  0
  8  1  1  0
  5  6  2  0
  5  7  1  1
  5  8  1  0
 12  5  1  0
  9 10  2  0
  9 11  1  1
  9 12  1  0
  9 13  1  0
 13 14  1  0
 15 14  1  6
 15 16  1  0
 15 17  1  0
 16 20  1  0
 17 18  1  1
 17 19  1  0
 19 20  1  0
 20 21  1  6
 21 22  1  0
 21 30  1  0
 22 23  2  0
 23 24  1  0
 24 25  1  0
 24 30  2  0
 25 26  1  0
 25 27  2  0
 27 28  1  0
 28 29  2  0
 29 30  1  0
M  END
$$$$
