
     RDKit          3D

 30 32  0  0  0  0  0  0  0  0999 V2000
  -11.9209   25.0569    4.2965 P   0  0  2  0  0  5  0  0  0  0  0  0
  -12.3343   26.6265    3.8248 O   0  0  0  0  0  0  0  0  0  0  0  0
  -13.1849   24.2611    4.5077 O   0  0  0  0  0  0  0  0  0  0  0  0
  -10.9888   25.0501    5.7085 O   0  0  0  0  0  0  0  0  0  0  0  0
  -11.8012   23.0189    2.4793 P   0  0  1  0  0  5  0  0  0  0  0  0
  -11.1748   22.5197    1.1941 O   0  0  0  0  0  0  0  0  0  0  0  0
  -11.6950   21.8225    3.6935 O   0  0  0  0  0  0  0  0  0  0  0  0
  -10.9861   24.3821    3.0608 O   0  0  0  0  0  0  0  0  0  0  0  0
  -13.5937   24.1637    0.7625 P   0  0  2  0  0  5  0  0  0  0  0  0
  -12.3069   24.1386   -0.0209 O   0  0  0  0  0  0  0  0  0  0  0  0
  -14.0555   25.7773    1.0885 O   0  0  0  0  0  0  0  0  0  0  0  0
  -13.4324   23.4033    2.2637 O   0  0  0  0  0  0  0  0  0  0  0  0
  -14.8354   23.3821   -0.0782 O   0  0  0  0  0  0  0  0  0  0  0  0
  -15.4241   24.3340   -0.9414 C   0  0  0  0  0  0  0  0  0  0  0  0
  -16.5433   23.6119   -1.6541 C   0  0  1  0  0  0  0  0  0  0  0  0
  -16.2928   23.4164   -2.9921 O   0  0  0  0  0  0  0  0  0  0  0  0
  -16.5636   22.1734   -1.1308 C   0  0  1  0  0  0  0  0  0  0  0  0
  -17.2492   22.1921    0.0642 O   0  0  0  0  0  0  0  0  0  0  0  0
  -17.3964   21.5061   -2.2335 C   0  0  0  0  0  0  0  0  0  0  0  0
  -17.0904   22.3695   -3.4111 C   0  0  2  0  0  0  0  0  0  0  0  0
  -16.4612   21.6464   -4.4979 N   0  0  0  0  0  0  0  0  0  0  0  0
  -15.1409   21.5068   -4.7051 C   0  0  0  0  0  0  0  0  0  0  0  0
  -14.9207   20.7692   -5.8145 N   0  0  0  0  0  0  0  0  0  0  0  0
  -16.1023   20.4197   -6.3428 C   0  0  0  0  0  0  0  0  0  0  0  0
  -16.4485   19.6776   -7.4601 C   0  0  0  0  0  0  0  0  0  0  0  0
  -15.4727   19.1040   -8.3213 N   0  0  0  0  0  0  0  0  0  0  0  0
  -17.7719   19.5308   -7.6838 N   0  0  0  0  0  0  0  0  0  0  0  0
  -18.6918   20.0751   -6.8668 C   0  0  0  0  0  0  0  0  0  0  0  0
  -18.3628   20.8022   -5.7722 N   0  0  0  0  0  0  0  0  0  0  0  0
  -17.0546   20.9734   -5.5118 C   0  0  0  0  0  0  0  0  0  0  0  0
  1  2  1  6
  1  3  2  0
  1  4  1  0
  8  1  1  0
  5  6  2  0
  5  7  1  1
  5  8  1  0
 12  5  1  0
  9 10  2  0
  9 11  1  1
  9 12  1  0
  9 13  1  0
 14 13  1  1
 14 15  1  0
 15 16  1  6
 15 17  1  0
 16 20  1  0
 17 18  1  1
 17 19  1  0
 19 20  1  6
 20 21  1  6
 21 22  1  0
 21 30  1  0
 22 23  2  0
 23 24  1  0
 24 25  1  0
 24 30  2  0
 25 26  1  0
 25 27  2  0
 27 28  1  0
 28 29  2  0
 29 30  1  0
M  END
$$$$
