
     RDKit          3D

 30 32  0  0  0  0  0  0  0  0999 V2000
  -15.1196   26.8486    0.2315 P   0  0  2  0  0  5  0  0  0  0  0  0
  -13.4346   26.8893    0.0759 O   0  0  0  0  0  0  0  0  0  0  0  0
  -15.6954   26.2081   -1.0173 O   0  0  0  0  0  0  0  0  0  0  0  0
  -15.7538   28.4002    0.4168 O   0  0  0  0  0  0  0  0  0  0  0  0
  -14.3424   25.7897    2.6887 P   0  0  1  0  0  5  0  0  0  0  0  0
  -13.3778   26.9619    2.5992 O   0  0  0  0  0  0  0  0  0  0  0  0
  -14.9266   25.7382    4.2720 O   0  0  0  0  0  0  0  0  0  0  0  0
  -15.5763   25.9160    1.5633 O   0  0  0  0  0  0  0  0  0  0  0  0
  -14.4630   23.0649    2.0617 P   0  0  2  0  0  5  0  0  0  0  0  0
  -15.1913   23.2309    0.7475 O   0  0  0  0  0  0  0  0  0  0  0  0
  -15.6120   23.0103    3.2829 O   0  0  0  0  0  0  0  0  0  0  0  0
  -13.4506   24.3899    2.3550 O   0  0  0  0  0  0  0  0  0  0  0  0
  -13.5124   21.6860    1.9836 O   0  0  0  0  0  0  0  0  0  0  0  0
  -12.1569   21.9665    1.9151 C   0  0  0  0  0  0  0  0  0  0  0  0
  -11.6833   21.5985    0.5275 C   0  0  1  0  0  0  0  0  0  0  0  0
  -12.7178   21.0891   -0.2558 O   0  0  0  0  0  0  0  0  0  0  0  0
  -11.2274   22.8813   -0.1371 C   0  0  1  0  0  0  0  0  0  0  0  0
   -9.8245   22.8683   -0.2959 O   0  0  0  0  0  0  0  0  0  0  0  0
  -11.8599   22.7415   -1.5212 C   0  0  0  0  0  0  0  0  0  0  0  0
  -12.1629   21.2577   -1.5452 C   0  0  2  0  0  0  0  0  0  0  0  0
  -13.0767   20.8922   -2.5762 N   0  0  0  0  0  0  0  0  0  0  0  0
  -14.2593   21.4615   -2.8680 C   0  0  0  0  0  0  0  0  0  0  0  0
  -14.8235   20.8232   -3.9169 N   0  0  0  0  0  0  0  0  0  0  0  0
  -14.0097   19.8362   -4.3111 C   0  0  0  0  0  0  0  0  0  0  0  0
  -14.1202   18.9056   -5.3220 C   0  0  0  0  0  0  0  0  0  0  0  0
  -15.2295   18.8306   -6.2048 N   0  0  0  0  0  0  0  0  0  0  0  0
  -13.1129   18.0266   -5.4675 N   0  0  0  0  0  0  0  0  0  0  0  0
  -12.0258   18.0595   -4.6432 C   0  0  0  0  0  0  0  0  0  0  0  0
  -11.9354   18.9743   -3.6628 N   0  0  0  0  0  0  0  0  0  0  0  0
  -12.9149   19.8912   -3.4592 C   0  0  0  0  0  0  0  0  0  0  0  0
  1  2  1  6
  1  3  2  0
  1  4  1  0
  8  1  1  0
  5  6  2  0
  5  7  1  1
  5  8  1  0
 12  5  1  0
  9 10  2  0
  9 11  1  1
  9 12  1  0
  9 13  1  0
 13 14  1  0
 15 14  1  1
 15 16  1  0
 15 17  1  0
 16 20  1  0
 17 18  1  6
 17 19  1  0
 19 20  1  0
 20 21  1  6
 21 22  1  0
 21 30  1  0
 22 23  2  0
 23 24  1  0
 24 25  1  0
 24 30  2  0
 25 26  1  0
 25 27  2  0
 27 28  1  0
 28 29  2  0
 29 30  1  0
M  END
$$$$
