
     RDKit          3D

 30 32  0  0  0  0  0  0  0  0999 V2000
  -15.0731   23.8918    1.7071 P   0  0  2  0  0  5  0  0  0  0  0  0
  -15.5531   22.9194    3.0038 O   0  0  0  0  0  0  0  0  0  0  0  0
  -13.9451   24.7860    2.1580 O   0  0  0  0  0  0  0  0  0  0  0  0
  -16.3532   24.8267    1.1154 O   0  0  0  0  0  0  0  0  0  0  0  0
  -12.9211   23.1532    0.1929 P   0  0  1  0  0  5  0  0  0  0  0  0
  -12.7062   23.9123   -1.0999 O   0  0  0  0  0  0  0  0  0  0  0  0
  -12.3538   24.0689    1.5184 O   0  0  0  0  0  0  0  0  0  0  0  0
  -14.5664   22.8680    0.4615 O   0  0  0  0  0  0  0  0  0  0  0  0
  -11.7512   21.2682    1.7896 P   0  0  2  0  0  5  0  0  0  0  0  0
  -12.1673   19.8567    2.1130 O   0  0  0  0  0  0  0  0  0  0  0  0
  -12.6126   22.3764    2.7657 O   0  0  0  0  0  0  0  0  0  0  0  0
  -12.1002   21.6763    0.1866 O   0  0  0  0  0  0  0  0  0  0  0  0
  -10.0906   21.4840    2.0245 O   0  0  0  0  0  0  0  0  0  0  0  0
   -9.4367   21.0228    0.8595 C   0  0  0  0  0  0  0  0  0  0  0  0
   -8.2869   20.1686    1.3394 C   0  0  1  0  0  0  0  0  0  0  0  0
   -8.6626   19.2371    2.2788 O   0  0  0  0  0  0  0  0  0  0  0  0
   -7.8644   19.2747    0.1708 C   0  0  1  0  0  0  0  0  0  0  0  0
   -7.0476   20.0339   -0.6386 O   0  0  0  0  0  0  0  0  0  0  0  0
   -7.0555   18.2154    0.9314 C   0  0  0  0  0  0  0  0  0  0  0  0
   -7.7083   18.2388    2.2728 C   0  0  2  0  0  0  0  0  0  0  0  0
   -8.2931   16.9657    2.6426 N   0  0  0  0  0  0  0  0  0  0  0  0
   -9.5722   16.5934    2.4663 C   0  0  0  0  0  0  0  0  0  0  0  0
   -9.7587   15.3392    2.9306 N   0  0  0  0  0  0  0  0  0  0  0  0
   -8.5961   14.8807    3.4162 C   0  0  0  0  0  0  0  0  0  0  0  0
   -8.2315   13.6788    4.0005 C   0  0  0  0  0  0  0  0  0  0  0  0
   -9.1591   12.6185    4.1956 N   0  0  0  0  0  0  0  0  0  0  0  0
   -6.9386   13.5735    4.3753 N   0  0  0  0  0  0  0  0  0  0  0  0
   -6.0643   14.5789    4.1892 C   0  0  0  0  0  0  0  0  0  0  0  0
   -6.4116   15.7574    3.6188 N   0  0  0  0  0  0  0  0  0  0  0  0
   -7.6906   15.9051    3.2303 C   0  0  0  0  0  0  0  0  0  0  0  0
  1  2  1  1
  1  3  2  0
  1  4  1  0
  8  1  1  0
  5  6  2  0
  5  7  1  1
  5  8  1  0
 12  5  1  0
  9 10  2  0
  9 11  1  1
  9 12  1  0
  9 13  1  0
 14 13  1  1
 14 15  1  0
 15 16  1  1
 15 17  1  0
 16 20  1  0
 17 18  1  6
 17 19  1  0
 19 20  1  6
 20 21  1  6
 21 22  1  0
 21 30  1  0
 22 23  2  0
 23 24  1  0
 24 25  1  0
 24 30  2  0
 25 26  1  0
 25 27  2  0
 27 28  1  0
 28 29  2  0
 29 30  1  0
M  END
$$$$
