
     RDKit          3D

 30 32  0  0  0  0  0  0  0  0999 V2000
  -11.8426   25.9185    4.4657 P   0  0  2  0  0  5  0  0  0  0  0  0
  -11.2709   26.4517    5.9643 O   0  0  0  0  0  0  0  0  0  0  0  0
  -11.7384   27.0490    3.4724 O   0  0  0  0  0  0  0  0  0  0  0  0
  -13.4424   25.3756    4.5605 O   0  0  0  0  0  0  0  0  0  0  0  0
  -11.3730   24.1468    2.4383 P   0  0  1  0  0  5  0  0  0  0  0  0
  -11.1030   25.2468    1.4329 O   0  0  0  0  0  0  0  0  0  0  0  0
  -10.4830   22.7456    2.0362 O   0  0  0  0  0  0  0  0  0  0  0  0
  -10.8839   24.6107    3.9895 O   0  0  0  0  0  0  0  0  0  0  0  0
  -13.1631   22.1530    1.8985 P   0  0  2  0  0  5  0  0  0  0  0  0
  -13.6575   21.2094    2.9641 O   0  0  0  0  0  0  0  0  0  0  0  0
  -11.6066   21.6835    1.3696 O   0  0  0  0  0  0  0  0  0  0  0  0
  -13.0110   23.7338    2.4781 O   0  0  0  0  0  0  0  0  0  0  0  0
  -14.2188   22.1896    0.5781 O   0  0  0  0  0  0  0  0  0  0  0  0
  -14.5593   23.5420    0.3481 C   0  0  0  0  0  0  0  0  0  0  0  0
  -15.6060   23.5270   -0.7410 C   0  0  1  0  0  0  0  0  0  0  0  0
  -15.1443   23.0022   -1.9254 O   0  0  0  0  0  0  0  0  0  0  0  0
  -16.6661   22.4979   -0.3403 C   0  0  1  0  0  0  0  0  0  0  0  0
  -17.5107   23.1206    0.5528 O   0  0  0  0  0  0  0  0  0  0  0  0
  -17.3541   22.2900   -1.6961 C   0  0  0  0  0  0  0  0  0  0  0  0
  -16.2457   22.5888   -2.6491 C   0  0  2  0  0  0  0  0  0  0  0  0
  -15.9098   21.4655   -3.5006 N   0  0  0  0  0  0  0  0  0  0  0  0
  -14.9414   20.5598   -3.2823 C   0  0  0  0  0  0  0  0  0  0  0  0
  -14.9166   19.6562   -4.2853 N   0  0  0  0  0  0  0  0  0  0  0  0
  -15.8740   19.9669   -5.1709 C   0  0  0  0  0  0  0  0  0  0  0  0
  -16.2770   19.3839   -6.3612 C   0  0  0  0  0  0  0  0  0  0  0  0
  -15.6512   18.2189   -6.8847 N   0  0  0  0  0  0  0  0  0  0  0  0
  -17.3025   19.9896   -6.9971 N   0  0  0  0  0  0  0  0  0  0  0  0
  -17.8917   21.0916   -6.4987 C   0  0  0  0  0  0  0  0  0  0  0  0
  -17.5046   21.6686   -5.3358 N   0  0  0  0  0  0  0  0  0  0  0  0
  -16.4858   21.0974   -4.6692 C   0  0  0  0  0  0  0  0  0  0  0  0
  1  2  1  1
  1  3  2  0
  1  4  1  0
  8  1  1  0
  5  6  2  0
  5  7  1  6
  5  8  1  0
 12  5  1  0
  9 10  2  0
  9 11  1  6
  9 12  1  0
  9 13  1  0
 14 13  1  1
 14 15  1  0
 15 16  1  6
 15 17  1  0
 16 20  1  0
 17 18  1  1
 17 19  1  0
 19 20  1  6
 20 21  1  1
 21 22  1  0
 21 30  1  0
 22 23  2  0
 23 24  1  0
 24 25  1  0
 24 30  2  0
 25 26  1  0
 25 27  2  0
 27 28  1  0
 28 29  2  0
 29 30  1  0
M  END
$$$$
