
     RDKit          3D

 30 32  0  0  0  0  0  0  0  0999 V2000
  -11.8553   26.8855    2.7611 P   0  0  2  0  0  5  0  0  0  0  0  0
  -13.0126   26.9157    3.9928 O   0  0  0  0  0  0  0  0  0  0  0  0
  -10.5078   27.2246    3.3482 O   0  0  0  0  0  0  0  0  0  0  0  0
  -12.2343   27.9669    1.5163 O   0  0  0  0  0  0  0  0  0  0  0  0
  -13.4181   24.9827    1.5750 P   0  0  1  0  0  5  0  0  0  0  0  0
  -14.2226   24.3079    2.6664 O   0  0  0  0  0  0  0  0  0  0  0  0
  -14.1355   26.4720    1.1455 O   0  0  0  0  0  0  0  0  0  0  0  0
  -11.8493   25.3282    2.1045 O   0  0  0  0  0  0  0  0  0  0  0  0
  -11.9048   23.1201    0.2666 P   0  0  2  0  0  5  0  0  0  0  0  0
  -10.9552   23.6610    1.3039 O   0  0  0  0  0  0  0  0  0  0  0  0
  -11.1949   23.2060   -1.2863 O   0  0  0  0  0  0  0  0  0  0  0  0
  -13.3318   24.0230    0.1870 O   0  0  0  0  0  0  0  0  0  0  0  0
  -12.3289   21.5183    0.6036 O   0  0  0  0  0  0  0  0  0  0  0  0
  -11.4290   21.0414    1.5837 C   0  0  0  0  0  0  0  0  0  0  0  0
  -11.7437   19.5741    1.7572 C   0  0  1  0  0  0  0  0  0  0  0  0
  -10.6636   18.7585    1.5133 O   0  0  0  0  0  0  0  0  0  0  0  0
  -11.9815   19.3324    3.2501 C   0  0  1  0  0  0  0  0  0  0  0  0
  -13.2803   19.7089    3.5143 O   0  0  0  0  0  0  0  0  0  0  0  0
  -11.8303   17.8060    3.2949 C   0  0  0  0  0  0  0  0  0  0  0  0
  -10.9016   17.5582    2.1538 C   0  0  2  0  0  0  0  0  0  0  0  0
   -9.6574   16.9354    2.5584 N   0  0  0  0  0  0  0  0  0  0  0  0
   -8.5193   17.5677    2.8909 C   0  0  0  0  0  0  0  0  0  0  0  0
   -7.5659   16.6678    3.2143 N   0  0  0  0  0  0  0  0  0  0  0  0
   -8.0774   15.4343    3.0947 C   0  0  0  0  0  0  0  0  0  0  0  0
   -7.5435   14.1726    3.2996 C   0  0  0  0  0  0  0  0  0  0  0  0
   -6.1993   13.9776    3.7217 N   0  0  0  0  0  0  0  0  0  0  0  0
   -8.3778   13.1353    3.0739 N   0  0  0  0  0  0  0  0  0  0  0  0
   -9.6486   13.3239    2.6746 C   0  0  0  0  0  0  0  0  0  0  0  0
  -10.1793   14.5536    2.4716 N   0  0  0  0  0  0  0  0  0  0  0  0
   -9.3824   15.6158    2.6850 C   0  0  0  0  0  0  0  0  0  0  0  0
  1  2  1  1
  1  3  2  0
  1  4  1  0
  8  1  1  0
  5  6  2  0
  5  7  1  6
  5  8  1  0
 12  5  1  0
  9 10  2  0
  9 11  1  6
  9 12  1  0
  9 13  1  0
 14 13  1  1
 14 15  1  0
 15 16  1  1
 15 17  1  0
 16 20  1  0
 17 18  1  6
 17 19  1  0
 19 20  1  6
 20 21  1  1
 21 22  1  0
 21 30  1  0
 22 23  2  0
 23 24  1  0
 24 25  1  0
 24 30  2  0
 25 26  1  0
 25 27  2  0
 27 28  1  0
 28 29  2  0
 29 30  1  0
M  END
$$$$
