
     RDKit          3D

 30 32  0  0  0  0  0  0  0  0999 V2000
  -15.4246   25.6596   -5.5301 P   0  0  2  0  0  5  0  0  0  0  0  0
  -14.8202   26.6687   -6.7473 O   0  0  0  0  0  0  0  0  0  0  0  0
  -14.3071   24.7371   -5.0812 O   0  0  0  0  0  0  0  0  0  0  0  0
  -16.7269   24.7437   -6.0863 O   0  0  0  0  0  0  0  0  0  0  0  0
  -16.4278   25.5869   -2.9317 P   0  0  1  0  0  5  0  0  0  0  0  0
  -16.7654   26.4003   -1.6921 O   0  0  0  0  0  0  0  0  0  0  0  0
  -17.7955   24.6791   -3.3263 O   0  0  0  0  0  0  0  0  0  0  0  0
  -15.9311   26.5648   -4.1975 O   0  0  0  0  0  0  0  0  0  0  0  0
  -13.9047   25.3990   -1.7354 P   0  0  2  0  0  5  0  0  0  0  0  0
  -14.4079   26.7191   -1.1976 O   0  0  0  0  0  0  0  0  0  0  0  0
  -12.7130   25.7267   -2.8699 O   0  0  0  0  0  0  0  0  0  0  0  0
  -15.1505   24.5573   -2.5138 O   0  0  0  0  0  0  0  0  0  0  0  0
  -13.3612   24.4642   -0.4541 O   0  0  0  0  0  0  0  0  0  0  0  0
  -14.1833   24.5416    0.6590 C   0  0  0  0  0  0  0  0  0  0  0  0
  -14.1032   23.2152    1.3798 C   0  0  1  0  0  0  0  0  0  0  0  0
  -12.9802   22.4836    0.9969 O   0  0  0  0  0  0  0  0  0  0  0  0
  -13.9376   23.5242    2.8536 C   0  0  1  0  0  0  0  0  0  0  0  0
  -15.1089   23.1638    3.5549 O   0  0  0  0  0  0  0  0  0  0  0  0
  -12.8341   22.5411    3.2425 C   0  0  0  0  0  0  0  0  0  0  0  0
  -12.8917   21.5756    2.0769 C   0  0  2  0  0  0  0  0  0  0  0  0
  -11.7390   20.7421    1.9863 N   0  0  0  0  0  0  0  0  0  0  0  0
  -10.5182   21.0724    1.5298 C   0  0  0  0  0  0  0  0  0  0  0  0
   -9.6994   20.0003    1.6077 N   0  0  0  0  0  0  0  0  0  0  0  0
  -10.3849   18.9687    2.1153 C   0  0  0  0  0  0  0  0  0  0  0  0
  -10.0153   17.6699    2.3924 C   0  0  0  0  0  0  0  0  0  0  0  0
   -8.7119   17.1565    2.1623 N   0  0  0  0  0  0  0  0  0  0  0  0
  -10.9527   16.8561    2.9094 N   0  0  0  0  0  0  0  0  0  0  0  0
  -12.2194   17.3042    3.1482 C   0  0  0  0  0  0  0  0  0  0  0  0
  -12.5617   18.5740    2.8716 N   0  0  0  0  0  0  0  0  0  0  0  0
  -11.6663   19.4494    2.3487 C   0  0  0  0  0  0  0  0  0  0  0  0
  1  2  1  6
  1  3  2  0
  1  4  1  0
  8  1  1  0
  5  6  2  0
  5  7  1  6
  5  8  1  0
 12  5  1  0
  9 10  2  0
  9 11  1  6
  9 12  1  0
  9 13  1  0
 13 14  1  0
 15 14  1  6
 15 16  1  0
 15 17  1  0
 16 20  1  0
 17 18  1  1
 17 19  1  0
 19 20  1  0
 20 21  1  6
 21 22  1  0
 21 30  1  0
 22 23  2  0
 23 24  1  0
 24 25  1  0
 24 30  2  0
 25 26  1  0
 25 27  2  0
 27 28  1  0
 28 29  2  0
 29 30  1  0
M  END
$$$$
