
     RDKit          3D

 30 32  0  0  0  0  0  0  0  0999 V2000
  -17.0542   23.8466   -2.6635 P   0  0  2  0  0  5  0  0  0  0  0  0
  -18.4085   24.1493   -1.6943 O   0  0  0  0  0  0  0  0  0  0  0  0
  -17.5016   23.8365   -4.1130 O   0  0  0  0  0  0  0  0  0  0  0  0
  -16.3459   22.3653   -2.2784 O   0  0  0  0  0  0  0  0  0  0  0  0
  -15.3111   25.1281   -0.9078 P   0  0  1  0  0  5  0  0  0  0  0  0
  -14.4624   26.3686   -0.6765 O   0  0  0  0  0  0  0  0  0  0  0  0
  -16.5516   25.1462    0.2374 O   0  0  0  0  0  0  0  0  0  0  0  0
  -15.8981   25.0631   -2.4750 O   0  0  0  0  0  0  0  0  0  0  0  0
  -14.6712   23.0100    0.8057 P   0  0  2  0  0  5  0  0  0  0  0  0
  -15.8692   22.1028    0.6416 O   0  0  0  0  0  0  0  0  0  0  0  0
  -15.0671   24.1850    1.9359 O   0  0  0  0  0  0  0  0  0  0  0  0
  -14.3075   23.7888   -0.6529 O   0  0  0  0  0  0  0  0  0  0  0  0
  -13.3467   22.0828    1.2495 O   0  0  0  0  0  0  0  0  0  0  0  0
  -12.1621   22.8021    1.2605 C   0  0  0  0  0  0  0  0  0  0  0  0
  -11.0837   21.8989    1.8143 C   0  0  1  0  0  0  0  0  0  0  0  0
  -10.8968   20.7675    1.0216 O   0  0  0  0  0  0  0  0  0  0  0  0
   -9.7870   22.6808    1.7667 C   0  0  1  0  0  0  0  0  0  0  0  0
   -9.3689   22.9985    3.0773 O   0  0  0  0  0  0  0  0  0  0  0  0
   -8.8266   21.6322    1.2067 C   0  0  0  0  0  0  0  0  0  0  0  0
   -9.6146   20.3635    1.4591 C   0  0  2  0  0  0  0  0  0  0  0  0
   -9.1224   19.2463    0.7235 N   0  0  0  0  0  0  0  0  0  0  0  0
   -8.5393   19.2506   -0.4881 C   0  0  0  0  0  0  0  0  0  0  0  0
   -8.2144   17.9870   -0.8397 N   0  0  0  0  0  0  0  0  0  0  0  0
   -8.5851   17.1561    0.1421 C   0  0  0  0  0  0  0  0  0  0  0  0
   -8.4801   15.7879    0.2738 C   0  0  0  0  0  0  0  0  0  0  0  0
   -7.9017   14.9447   -0.7110 N   0  0  0  0  0  0  0  0  0  0  0  0
   -8.9565   15.2360    1.4037 N   0  0  0  0  0  0  0  0  0  0  0  0
   -9.5210   16.0058    2.3790 C   0  0  0  0  0  0  0  0  0  0  0  0
   -9.6149   17.3385    2.2331 N   0  0  0  0  0  0  0  0  0  0  0  0
   -9.1548   17.9616    1.1189 C   0  0  0  0  0  0  0  0  0  0  0  0
  1  2  1  1
  1  3  2  0
  1  4  1  0
  8  1  1  0
  5  6  2  0
  5  7  1  1
  5  8  1  0
 12  5  1  0
  9 10  2  0
  9 11  1  1
  9 12  1  0
  9 13  1  0
 13 14  1  0
 15 14  1  6
 15 16  1  0
 15 17  1  0
 16 20  1  0
 17 18  1  1
 17 19  1  0
 19 20  1  0
 20 21  1  6
 21 22  1  0
 21 30  1  0
 22 23  2  0
 23 24  1  0
 24 25  1  0
 24 30  2  0
 25 26  1  0
 25 27  2  0
 27 28  1  0
 28 29  2  0
 29 30  1  0
M  END
$$$$
