
     RDKit          3D

 30 32  0  0  0  0  0  0  0  0999 V2000
  -12.4064   25.1032    5.3473 P   0  0  2  0  0  5  0  0  0  0  0  0
  -11.9119   26.7031    5.5777 O   0  0  0  0  0  0  0  0  0  0  0  0
  -11.7655   24.2367    6.4026 O   0  0  0  0  0  0  0  0  0  0  0  0
  -12.0001   24.5359    3.8059 O   0  0  0  0  0  0  0  0  0  0  0  0
  -14.7152   24.5101    4.0103 P   0  0  1  0  0  5  0  0  0  0  0  0
  -14.4898   23.0208    3.8531 O   0  0  0  0  0  0  0  0  0  0  0  0
  -16.3873   24.8582    4.0189 O   0  0  0  0  0  0  0  0  0  0  0  0
  -14.0908   25.0653    5.4809 O   0  0  0  0  0  0  0  0  0  0  0  0
  -13.8859   24.3519    1.4106 P   0  0  2  0  0  5  0  0  0  0  0  0
  -14.0696   25.0949    0.1128 O   0  0  0  0  0  0  0  0  0  0  0  0
  -15.1135   23.1766    1.5974 O   0  0  0  0  0  0  0  0  0  0  0  0
  -14.0053   25.3798    2.7475 O   0  0  0  0  0  0  0  0  0  0  0  0
  -12.3727   23.6000    1.4746 O   0  0  0  0  0  0  0  0  0  0  0  0
  -12.5977   22.2098    1.5944 C   0  0  0  0  0  0  0  0  0  0  0  0
  -11.6651   21.5516    0.6049 C   0  0  1  0  0  0  0  0  0  0  0  0
  -12.3047   20.6696   -0.2343 O   0  0  0  0  0  0  0  0  0  0  0  0
  -11.2052   22.6326   -0.3765 C   0  0  1  0  0  0  0  0  0  0  0  0
  -10.1777   23.3173    0.2352 O   0  0  0  0  0  0  0  0  0  0  0  0
  -10.6770   21.7464   -1.5126 C   0  0  0  0  0  0  0  0  0  0  0  0
  -11.5117   20.5198   -1.3552 C   0  0  2  0  0  0  0  0  0  0  0  0
  -12.3199   20.2287   -2.5221 N   0  0  0  0  0  0  0  0  0  0  0  0
  -13.0783   21.1020   -3.2061 C   0  0  0  0  0  0  0  0  0  0  0  0
  -13.6908   20.4782   -4.2351 N   0  0  0  0  0  0  0  0  0  0  0  0
  -13.3350   19.1856   -4.2306 C   0  0  0  0  0  0  0  0  0  0  0  0
  -13.6659   18.1178   -5.0487 C   0  0  0  0  0  0  0  0  0  0  0  0
  -14.5468   18.2564   -6.1568 N   0  0  0  0  0  0  0  0  0  0  0  0
  -13.1009   16.9336   -4.7304 N   0  0  0  0  0  0  0  0  0  0  0  0
  -12.2683   16.8067   -3.6812 C   0  0  0  0  0  0  0  0  0  0  0  0
  -11.9389   17.8449   -2.8759 N   0  0  0  0  0  0  0  0  0  0  0  0
  -12.4798   19.0437   -3.1571 C   0  0  0  0  0  0  0  0  0  0  0  0
  1  2  1  6
  1  3  2  0
  1  4  1  0
  8  1  1  0
  5  6  2  0
  5  7  1  1
  5  8  1  0
 12  5  1  0
  9 10  2  0
  9 11  1  1
  9 12  1  0
  9 13  1  0
 14 13  1  1
 14 15  1  0
 15 16  1  6
 15 17  1  0
 16 20  1  0
 17 18  1  1
 17 19  1  0
 19 20  1  6
 20 21  1  6
 21 22  1  0
 21 30  1  0
 22 23  2  0
 23 24  1  0
 24 25  1  0
 24 30  2  0
 25 26  1  0
 25 27  2  0
 27 28  1  0
 28 29  2  0
 29 30  1  0
M  END
$$$$
