
     RDKit          3D

 30 32  0  0  0  0  0  0  0  0999 V2000
  -15.5126   30.2738   -5.4704 P   0  0  2  0  0  5  0  0  0  0  0  0
  -15.8988   30.1670   -7.1149 O   0  0  0  0  0  0  0  0  0  0  0  0
  -16.2556   31.4599   -4.8852 O   0  0  0  0  0  0  0  0  0  0  0  0
  -13.8537   30.4762   -5.2442 O   0  0  0  0  0  0  0  0  0  0  0  0
  -15.4797   28.8816   -3.0570 P   0  0  1  0  0  5  0  0  0  0  0  0
  -13.9795   29.1102   -2.9596 O   0  0  0  0  0  0  0  0  0  0  0  0
  -16.2325   30.0802   -2.1365 O   0  0  0  0  0  0  0  0  0  0  0  0
  -16.0040   28.8832   -4.6477 O   0  0  0  0  0  0  0  0  0  0  0  0
  -15.1913   26.1157   -3.3710 P   0  0  2  0  0  5  0  0  0  0  0  0
  -13.7342   26.3508   -3.6974 O   0  0  0  0  0  0  0  0  0  0  0  0
  -16.0503   26.1335   -4.8121 O   0  0  0  0  0  0  0  0  0  0  0  0
  -15.7914   27.3575   -2.3891 O   0  0  0  0  0  0  0  0  0  0  0  0
  -15.3322   24.6703   -2.5330 O   0  0  0  0  0  0  0  0  0  0  0  0
  -16.3376   24.6937   -1.5794 C   0  0  0  0  0  0  0  0  0  0  0  0
  -16.5613   23.2723   -1.1159 C   0  0  1  0  0  0  0  0  0  0  0  0
  -16.2878   22.3488   -2.1236 O   0  0  0  0  0  0  0  0  0  0  0  0
  -15.5655   23.0094   -0.0048 C   0  0  1  0  0  0  0  0  0  0  0  0
  -16.2417   22.8923    1.2291 O   0  0  0  0  0  0  0  0  0  0  0  0
  -15.0461   21.6250   -0.3910 C   0  0  0  0  0  0  0  0  0  0  0  0
  -16.1271   21.1752   -1.3518 C   0  0  2  0  0  0  0  0  0  0  0  0
  -15.7367   20.0580   -2.1462 N   0  0  0  0  0  0  0  0  0  0  0  0
  -14.6828   19.2440   -1.9607 C   0  0  0  0  0  0  0  0  0  0  0  0
  -14.6588   18.3044   -2.9315 N   0  0  0  0  0  0  0  0  0  0  0  0
  -15.6973   18.5040   -3.7522 C   0  0  0  0  0  0  0  0  0  0  0  0
  -16.1166   17.8319   -4.8803 C   0  0  0  0  0  0  0  0  0  0  0  0
  -15.4486   16.6992   -5.4154 N   0  0  0  0  0  0  0  0  0  0  0  0
  -17.2217   18.2865   -5.4972 N   0  0  0  0  0  0  0  0  0  0  0  0
  -17.8978   19.3717   -5.0202 C   0  0  0  0  0  0  0  0  0  0  0  0
  -17.4740   20.0145   -3.9186 N   0  0  0  0  0  0  0  0  0  0  0  0
  -16.3667   19.6102   -3.2464 C   0  0  0  0  0  0  0  0  0  0  0  0
  1  2  1  6
  1  3  2  0
  1  4  1  0
  8  1  1  0
  5  6  2  0
  5  7  1  1
  5  8  1  0
 12  5  1  0
  9 10  2  0
  9 11  1  6
  9 12  1  0
  9 13  1  0
 13 14  1  0
 15 14  1  6
 15 16  1  0
 15 17  1  0
 16 20  1  0
 17 18  1  1
 17 19  1  0
 19 20  1  0
 20 21  1  6
 21 22  1  0
 21 30  1  0
 22 23  2  0
 23 24  1  0
 24 25  1  0
 24 30  2  0
 25 26  1  0
 25 27  2  0
 27 28  1  0
 28 29  2  0
 29 30  1  0
M  END
$$$$
