
     RDKit          3D

 30 32  0  0  0  0  0  0  0  0999 V2000
  -11.6695   26.3609    3.0968 P   0  0  2  0  0  5  0  0  0  0  0  0
  -11.7118   26.5161    4.7817 O   0  0  0  0  0  0  0  0  0  0  0  0
  -10.8443   27.5038    2.5363 O   0  0  0  0  0  0  0  0  0  0  0  0
  -13.2220   26.4070    2.4397 O   0  0  0  0  0  0  0  0  0  0  0  0
  -11.8815   23.5833    3.0409 P   0  0  1  0  0  5  0  0  0  0  0  0
  -11.4133   22.3256    2.3257 O   0  0  0  0  0  0  0  0  0  0  0  0
  -11.8630   23.2570    4.6974 O   0  0  0  0  0  0  0  0  0  0  0  0
  -10.9356   24.9080    2.6468 O   0  0  0  0  0  0  0  0  0  0  0  0
  -14.2201   22.4662    1.9849 P   0  0  2  0  0  5  0  0  0  0  0  0
  -15.2795   22.0165    2.9649 O   0  0  0  0  0  0  0  0  0  0  0  0
  -13.0563   21.2610    1.8969 O   0  0  0  0  0  0  0  0  0  0  0  0
  -13.4669   23.8820    2.5275 O   0  0  0  0  0  0  0  0  0  0  0  0
  -14.9495   22.7923    0.5108 O   0  0  0  0  0  0  0  0  0  0  0  0
  -14.0982   23.4156   -0.3878 C   0  0  0  0  0  0  0  0  0  0  0  0
  -14.7617   23.3810   -1.7457 C   0  0  1  0  0  0  0  0  0  0  0  0
  -14.8002   22.0906   -2.2717 O   0  0  0  0  0  0  0  0  0  0  0  0
  -16.2006   23.8101   -1.5439 C   0  0  1  0  0  0  0  0  0  0  0  0
  -16.4107   25.0779   -2.1287 O   0  0  0  0  0  0  0  0  0  0  0  0
  -16.9422   22.7733   -2.3868 C   0  0  0  0  0  0  0  0  0  0  0  0
  -15.8119   22.2469   -3.2467 C   0  0  2  0  0  0  0  0  0  0  0  0
  -16.1301   21.0175   -3.8939 N   0  0  0  0  0  0  0  0  0  0  0  0
  -16.5694   19.8793   -3.3287 C   0  0  0  0  0  0  0  0  0  0  0  0
  -16.7547   18.9409   -4.2832 N   0  0  0  0  0  0  0  0  0  0  0  0
  -16.4366   19.4656   -5.4729 C   0  0  0  0  0  0  0  0  0  0  0  0
  -16.4515   18.9319   -6.7437 C   0  0  0  0  0  0  0  0  0  0  0  0
  -16.8474   17.5996   -7.0331 N   0  0  0  0  0  0  0  0  0  0  0  0
  -16.0670   19.7301   -7.7553 N   0  0  0  0  0  0  0  0  0  0  0  0
  -15.6780   21.0180   -7.5265 C   0  0  0  0  0  0  0  0  0  0  0  0
  -15.6699   21.5213   -6.2804 N   0  0  0  0  0  0  0  0  0  0  0  0
  -16.0455   20.7721   -5.2131 C   0  0  0  0  0  0  0  0  0  0  0  0
  1  2  1  1
  1  3  2  0
  1  4  1  0
  8  1  1  0
  5  6  2  0
  5  7  1  1
  5  8  1  0
 12  5  1  0
  9 10  2  0
  9 11  1  6
  9 12  1  0
  9 13  1  0
 13 14  1  0
 15 14  1  1
 15 16  1  0
 15 17  1  0
 16 20  1  0
 17 18  1  6
 17 19  1  0
 19 20  1  0
 20 21  1  1
 21 22  1  0
 21 30  1  0
 22 23  2  0
 23 24  1  0
 24 25  1  0
 24 30  2  0
 25 26  1  0
 25 27  2  0
 27 28  1  0
 28 29  2  0
 29 30  1  0
M  END
$$$$
