
     RDKit          3D

 30 32  0  0  0  0  0  0  0  0999 V2000
  -12.3751   25.6604    3.4029 P   0  0  2  0  0  5  0  0  0  0  0  0
  -13.1351   24.6328    4.5090 O   0  0  0  0  0  0  0  0  0  0  0  0
  -10.9632   25.9192    3.8666 O   0  0  0  0  0  0  0  0  0  0  0  0
  -13.2064   27.1241    3.2314 O   0  0  0  0  0  0  0  0  0  0  0  0
  -11.4272   23.4965    2.0288 P   0  0  1  0  0  5  0  0  0  0  0  0
  -10.0266   23.7498    1.5113 O   0  0  0  0  0  0  0  0  0  0  0  0
  -11.3803   23.0789    3.6842 O   0  0  0  0  0  0  0  0  0  0  0  0
  -12.3812   24.8872    1.9002 O   0  0  0  0  0  0  0  0  0  0  0  0
  -13.7784   22.1362    1.7243 P   0  0  2  0  0  5  0  0  0  0  0  0
  -14.1154   23.2363    2.6970 O   0  0  0  0  0  0  0  0  0  0  0  0
  -13.9401   20.6105    2.4787 O   0  0  0  0  0  0  0  0  0  0  0  0
  -12.1772   22.2351    1.1912 O   0  0  0  0  0  0  0  0  0  0  0  0
  -14.7780   22.1988    0.3618 O   0  0  0  0  0  0  0  0  0  0  0  0
  -15.4208   23.4576    0.3683 C   0  0  0  0  0  0  0  0  0  0  0  0
  -16.1268   23.5700   -0.9625 C   0  0  1  0  0  0  0  0  0  0  0  0
  -15.5126   22.8510   -1.9611 O   0  0  0  0  0  0  0  0  0  0  0  0
  -17.4641   22.8364   -0.8323 C   0  0  1  0  0  0  0  0  0  0  0  0
  -18.3399   23.7068   -0.2207 O   0  0  0  0  0  0  0  0  0  0  0  0
  -17.8103   22.6590   -2.3168 C   0  0  0  0  0  0  0  0  0  0  0  0
  -16.4566   22.6216   -2.9429 C   0  0  2  0  0  0  0  0  0  0  0  0
  -16.1855   21.3788   -3.6369 N   0  0  0  0  0  0  0  0  0  0  0  0
  -15.5208   20.3189   -3.1463 C   0  0  0  0  0  0  0  0  0  0  0  0
  -15.4597   19.3395   -4.0738 N   0  0  0  0  0  0  0  0  0  0  0  0
  -16.0876   19.7550   -5.1832 C   0  0  0  0  0  0  0  0  0  0  0  0
  -16.3161   19.1579   -6.4121 C   0  0  0  0  0  0  0  0  0  0  0  0
  -15.8575   17.8459   -6.7144 N   0  0  0  0  0  0  0  0  0  0  0  0
  -17.0024   19.8980   -7.3089 N   0  0  0  0  0  0  0  0  0  0  0  0
  -17.4344   21.1387   -7.0191 C   0  0  0  0  0  0  0  0  0  0  0  0
  -17.2156   21.7306   -5.8204 N   0  0  0  0  0  0  0  0  0  0  0  0
  -16.5354   21.0283   -4.8970 C   0  0  0  0  0  0  0  0  0  0  0  0
  1  2  1  1
  1  3  2  0
  1  4  1  0
  8  1  1  0
  5  6  2  0
  5  7  1  1
  5  8  1  0
 12  5  1  0
  9 10  2  0
  9 11  1  1
  9 12  1  0
  9 13  1  0
 14 13  1  1
 14 15  1  0
 15 16  1  6
 15 17  1  0
 16 20  1  0
 17 18  1  1
 17 19  1  0
 19 20  1  6
 20 21  1  1
 21 22  1  0
 21 30  1  0
 22 23  2  0
 23 24  1  0
 24 25  1  0
 24 30  2  0
 25 26  1  0
 25 27  2  0
 27 28  1  0
 28 29  2  0
 29 30  1  0
M  END
$$$$
