
     RDKit          3D

 30 32  0  0  0  0  0  0  0  0999 V2000
  -14.4212   26.2314    1.1905 P   0  0  2  0  0  5  0  0  0  0  0  0
  -13.8646   25.2527    2.4544 O   0  0  0  0  0  0  0  0  0  0  0  0
  -13.8153   27.6120    1.3581 O   0  0  0  0  0  0  0  0  0  0  0  0
  -16.1038   26.3455    1.2016 O   0  0  0  0  0  0  0  0  0  0  0  0
  -12.3258   25.1407   -0.2870 P   0  0  1  0  0  5  0  0  0  0  0  0
  -11.5786   25.6400   -1.5137 O   0  0  0  0  0  0  0  0  0  0  0  0
  -11.5050   25.7163    1.0715 O   0  0  0  0  0  0  0  0  0  0  0  0
  -13.9316   25.6165   -0.3042 O   0  0  0  0  0  0  0  0  0  0  0  0
  -12.4446   22.7861    1.2209 P   0  0  2  0  0  5  0  0  0  0  0  0
  -13.8184   22.1769    1.3840 O   0  0  0  0  0  0  0  0  0  0  0  0
  -12.2975   24.0293    2.3378 O   0  0  0  0  0  0  0  0  0  0  0  0
  -12.2652   23.4493   -0.3265 O   0  0  0  0  0  0  0  0  0  0  0  0
  -11.2926   21.5831    1.4124 O   0  0  0  0  0  0  0  0  0  0  0  0
  -10.0085   22.0114    1.1150 C   0  0  0  0  0  0  0  0  0  0  0  0
   -9.0720   20.8488    1.3529 C   0  0  1  0  0  0  0  0  0  0  0  0
   -9.5540   19.6699    0.7864 O   0  0  0  0  0  0  0  0  0  0  0  0
   -7.7757   21.1743    0.6396 C   0  0  1  0  0  0  0  0  0  0  0  0
   -6.7565   21.4234    1.5845 O   0  0  0  0  0  0  0  0  0  0  0  0
   -7.4690   19.8427   -0.0446 C   0  0  0  0  0  0  0  0  0  0  0  0
   -8.3641   18.9077    0.7421 C   0  0  2  0  0  0  0  0  0  0  0  0
   -8.5549   17.6488    0.1015 N   0  0  0  0  0  0  0  0  0  0  0  0
   -8.3668   17.3482   -1.1954 C   0  0  0  0  0  0  0  0  0  0  0  0
   -8.6571   16.0454   -1.4059 N   0  0  0  0  0  0  0  0  0  0  0  0
   -9.0351   15.4939   -0.2462 C   0  0  0  0  0  0  0  0  0  0  0  0
   -9.4284   14.2121    0.0742 C   0  0  0  0  0  0  0  0  0  0  0  0
   -9.5062   13.1539   -0.8690 N   0  0  0  0  0  0  0  0  0  0  0  0
   -9.7532   13.9660    1.3557 N   0  0  0  0  0  0  0  0  0  0  0  0
   -9.6938   14.9511    2.2983 C   0  0  0  0  0  0  0  0  0  0  0  0
   -9.3080   16.1952    1.9673 N   0  0  0  0  0  0  0  0  0  0  0  0
   -8.9662   16.5137    0.6932 C   0  0  0  0  0  0  0  0  0  0  0  0
  1  2  1  1
  1  3  2  0
  1  4  1  0
  8  1  1  0
  5  6  2  0
  5  7  1  1
  5  8  1  0
 12  5  1  0
  9 10  2  0
  9 11  1  1
  9 12  1  0
  9 13  1  0
 13 14  1  0
 15 14  1  6
 15 16  1  0
 15 17  1  0
 16 20  1  0
 17 18  1  1
 17 19  1  0
 19 20  1  0
 20 21  1  6
 21 22  1  0
 21 30  1  0
 22 23  2  0
 23 24  1  0
 24 25  1  0
 24 30  2  0
 25 26  1  0
 25 27  2  0
 27 28  1  0
 28 29  2  0
 29 30  1  0
M  END
$$$$
