
     RDKit          3D

 30 32  0  0  0  0  0  0  0  0999 V2000
  -13.5710   58.8544   -5.5422 P   0  0  2  0  0  5  0  0  0  0  0  0
  -13.5115   59.5829   -4.0180 O   0  0  0  0  0  0  0  0  0  0  0  0
  -15.0110   58.7544   -5.9802 O   0  0  0  0  0  0  0  0  0  0  0  0
  -12.8597   57.3193   -5.5329 O   0  0  0  0  0  0  0  0  0  0  0  0
  -12.7751   59.1231   -8.1429 P   0  0  1  0  0  5  0  0  0  0  0  0
  -11.8623   59.8365   -9.1184 O   0  0  0  0  0  0  0  0  0  0  0  0
  -12.2996   57.4916   -7.9719 O   0  0  0  0  0  0  0  0  0  0  0  0
  -12.6857   59.8241   -6.6063 O   0  0  0  0  0  0  0  0  0  0  0  0
  -14.5059   58.1320  -10.0120 P   0  0  2  0  0  5  0  0  0  0  0  0
  -15.4166   56.9611   -9.7483 O   0  0  0  0  0  0  0  0  0  0  0  0
  -12.9216   57.5842  -10.3484 O   0  0  0  0  0  0  0  0  0  0  0  0
  -14.3812   59.1487   -8.6671 O   0  0  0  0  0  0  0  0  0  0  0  0
  -15.0668   59.0617  -11.3082 O   0  0  0  0  0  0  0  0  0  0  0  0
  -14.1013   58.9765  -12.3369 C   0  0  0  0  0  0  0  0  0  0  0  0
  -14.5292   59.9702  -13.3912 C   0  0  1  0  0  0  0  0  0  0  0  0
  -15.4293   59.4482  -14.2904 O   0  0  0  0  0  0  0  0  0  0  0  0
  -15.3747   61.0389  -12.6938 C   0  0  1  0  0  0  0  0  0  0  0  0
  -14.4964   61.9304  -12.1172 O   0  0  0  0  0  0  0  0  0  0  0  0
  -16.0687   61.6599  -13.9135 C   0  0  0  0  0  0  0  0  0  0  0  0
  -16.1007   60.5103  -14.8639 C   0  0  2  0  0  0  0  0  0  0  0  0
  -17.4447   60.1244  -15.2441 N   0  0  0  0  0  0  0  0  0  0  0  0
  -18.4014   59.6531  -14.4267 C   0  0  0  0  0  0  0  0  0  0  0  0
  -19.5271   59.3991  -15.1278 N   0  0  0  0  0  0  0  0  0  0  0  0
  -19.3125   59.7045  -16.4155 C   0  0  0  0  0  0  0  0  0  0  0  0
  -20.1149   59.6370  -17.5427 C   0  0  0  0  0  0  0  0  0  0  0  0
  -21.4583   59.1730  -17.4902 N   0  0  0  0  0  0  0  0  0  0  0  0
  -19.5437   60.0391  -18.6981 N   0  0  0  0  0  0  0  0  0  0  0  0
  -18.2725   60.4772  -18.7436 C   0  0  0  0  0  0  0  0  0  0  0  0
  -17.4805   60.5467  -17.6468 N   0  0  0  0  0  0  0  0  0  0  0  0
  -18.0098   60.1556  -16.4740 C   0  0  0  0  0  0  0  0  0  0  0  0
  1  2  1  1
  1  3  2  0
  1  4  1  0
  8  1  1  0
  5  6  2  0
  5  7  1  1
  5  8  1  0
 12  5  1  0
  9 10  2  0
  9 11  1  6
  9 12  1  0
  9 13  1  0
 14 13  1  1
 14 15  1  0
 15 16  1  6
 15 17  1  0
 16 20  1  0
 17 18  1  6
 17 19  1  0
 19 20  1  6
 20 21  1  1
 21 22  1  0
 21 30  1  0
 22 23  2  0
 23 24  1  0
 24 25  1  0
 24 30  2  0
 25 26  1  0
 25 27  2  0
 27 28  1  0
 28 29  2  0
 29 30  1  0
M  END
$$$$
