
     RDKit          3D

 30 32  0  0  0  0  0  0  0  0999 V2000
  -12.3599   26.9255    2.3773 P   0  0  2  0  0  5  0  0  0  0  0  0
  -11.2284   26.1324    1.3998 O   0  0  0  0  0  0  0  0  0  0  0  0
  -13.5670   27.2662    1.5240 O   0  0  0  0  0  0  0  0  0  0  0  0
  -11.7148   28.3374    3.0366 O   0  0  0  0  0  0  0  0  0  0  0  0
  -13.1879   24.3676    3.1090 P   0  0  1  0  0  5  0  0  0  0  0  0
  -13.6919   23.4822    4.2379 O   0  0  0  0  0  0  0  0  0  0  0  0
  -14.3518   24.3360    1.8863 O   0  0  0  0  0  0  0  0  0  0  0  0
  -12.8690   25.9243    3.6384 O   0  0  0  0  0  0  0  0  0  0  0  0
  -11.9226   23.0397    0.9952 P   0  0  2  0  0  5  0  0  0  0  0  0
  -12.0019   24.1454   -0.0326 O   0  0  0  0  0  0  0  0  0  0  0  0
  -13.3684   22.1898    0.9486 O   0  0  0  0  0  0  0  0  0  0  0  0
  -11.7437   23.6824    2.5513 O   0  0  0  0  0  0  0  0  0  0  0  0
  -10.5829   22.0876    0.6641 O   0  0  0  0  0  0  0  0  0  0  0  0
   -9.4669   22.4485    1.4024 C   0  0  0  0  0  0  0  0  0  0  0  0
   -8.5348   21.2587    1.4335 C   0  0  1  0  0  0  0  0  0  0  0  0
   -9.2101   20.0640    1.1889 O   0  0  0  0  0  0  0  0  0  0  0  0
   -7.5500   21.4409    0.2968 C   0  0  1  0  0  0  0  0  0  0  0  0
   -6.2646   21.7136    0.8133 O   0  0  0  0  0  0  0  0  0  0  0  0
   -7.5276   20.0369   -0.3064 C   0  0  0  0  0  0  0  0  0  0  0  0
   -8.1255   19.2317    0.8286 C   0  0  2  0  0  0  0  0  0  0  0  0
   -8.5542   17.9336    0.4255 N   0  0  0  0  0  0  0  0  0  0  0  0
   -9.0353   17.5609   -0.7735 C   0  0  0  0  0  0  0  0  0  0  0  0
   -9.3294   16.2422   -0.7544 N   0  0  0  0  0  0  0  0  0  0  0  0
   -9.0405   15.7523    0.4574 C   0  0  0  0  0  0  0  0  0  0  0  0
   -9.1552   14.4838    0.9846 C   0  0  0  0  0  0  0  0  0  0  0  0
   -9.6495   13.3704    0.2557 N   0  0  0  0  0  0  0  0  0  0  0  0
   -8.7732   14.3070    2.2618 N   0  0  0  0  0  0  0  0  0  0  0  0
   -8.2915   15.3470    3.0025 C   0  0  0  0  0  0  0  0  0  0  0  0
   -8.1868   16.5771    2.4716 N   0  0  0  0  0  0  0  0  0  0  0  0
   -8.5538   16.8270    1.1892 C   0  0  0  0  0  0  0  0  0  0  0  0
  1  2  1  6
  1  3  2  0
  1  4  1  0
  8  1  1  0
  5  6  2  0
  5  7  1  6
  5  8  1  0
 12  5  1  0
  9 10  2  0
  9 11  1  1
  9 12  1  0
  9 13  1  0
 13 14  1  0
 15 14  1  6
 15 16  1  0
 15 17  1  0
 16 20  1  0
 17 18  1  1
 17 19  1  0
 19 20  1  0
 20 21  1  6
 21 22  1  0
 21 30  1  0
 22 23  2  0
 23 24  1  0
 24 25  1  0
 24 30  2  0
 25 26  1  0
 25 27  2  0
 27 28  1  0
 28 29  2  0
 29 30  1  0
M  END
$$$$
