
     RDKit          3D

 30 32  0  0  0  0  0  0  0  0999 V2000
  -10.8811   25.8976    3.9907 P   0  0  2  0  0  5  0  0  0  0  0  0
   -9.6863   24.8514    3.4116 O   0  0  0  0  0  0  0  0  0  0  0  0
  -11.3549   26.7733    2.8575 O   0  0  0  0  0  0  0  0  0  0  0  0
  -10.3139   26.8549    5.2652 O   0  0  0  0  0  0  0  0  0  0  0  0
  -12.8576   24.1515    3.2736 P   0  0  1  0  0  5  0  0  0  0  0  0
  -14.0025   23.2713    3.7295 O   0  0  0  0  0  0  0  0  0  0  0  0
  -13.4273   25.3599    2.2094 O   0  0  0  0  0  0  0  0  0  0  0  0
  -12.1465   24.9481    4.5852 O   0  0  0  0  0  0  0  0  0  0  0  0
  -12.4382   22.3536    1.2580 P   0  0  2  0  0  5  0  0  0  0  0  0
  -13.2438   21.2171    1.8321 O   0  0  0  0  0  0  0  0  0  0  0  0
  -11.1955   21.7477    0.2520 O   0  0  0  0  0  0  0  0  0  0  0  0
  -11.6738   23.2570    2.4652 O   0  0  0  0  0  0  0  0  0  0  0  0
  -13.4172   23.4080    0.3698 O   0  0  0  0  0  0  0  0  0  0  0  0
  -14.7582   23.0116    0.5750 C   0  0  0  0  0  0  0  0  0  0  0  0
  -15.4115   23.0365   -0.7868 C   0  0  1  0  0  0  0  0  0  0  0  0
  -14.7539   22.2629   -1.7145 O   0  0  0  0  0  0  0  0  0  0  0  0
  -16.7486   22.3011   -0.6644 C   0  0  1  0  0  0  0  0  0  0  0  0
  -17.6531   23.1999   -0.1423 O   0  0  0  0  0  0  0  0  0  0  0  0
  -17.0345   22.0304   -2.1476 C   0  0  0  0  0  0  0  0  0  0  0  0
  -15.6568   21.9660   -2.7166 C   0  0  2  0  0  0  0  0  0  0  0  0
  -15.3510   20.6854   -3.3218 N   0  0  0  0  0  0  0  0  0  0  0  0
  -14.5097   19.7551   -2.8396 C   0  0  0  0  0  0  0  0  0  0  0  0
  -14.4729   18.6890   -3.6675 N   0  0  0  0  0  0  0  0  0  0  0  0
  -15.2945   18.9167   -4.7022 C   0  0  0  0  0  0  0  0  0  0  0  0
  -15.6280   18.1676   -5.8188 C   0  0  0  0  0  0  0  0  0  0  0  0
  -15.0743   16.8801   -6.0609 N   0  0  0  0  0  0  0  0  0  0  0  0
  -16.5127   18.7345   -6.6666 N   0  0  0  0  0  0  0  0  0  0  0  0
  -17.0341   19.9527   -6.4341 C   0  0  0  0  0  0  0  0  0  0  0  0
  -16.7141   20.6924   -5.3453 N   0  0  0  0  0  0  0  0  0  0  0  0
  -15.8356   20.1653   -4.4740 C   0  0  0  0  0  0  0  0  0  0  0  0
  1  2  1  6
  1  3  2  0
  1  4  1  0
  8  1  1  0
  5  6  2  0
  5  7  1  6
  5  8  1  0
 12  5  1  0
  9 10  2  0
  9 11  1  6
  9 12  1  0
  9 13  1  0
 14 13  1  1
 14 15  1  0
 15 16  1  6
 15 17  1  0
 16 20  1  0
 17 18  1  6
 17 19  1  0
 19 20  1  6
 20 21  1  1
 21 22  1  0
 21 30  1  0
 22 23  2  0
 23 24  1  0
 24 25  1  0
 24 30  2  0
 25 26  1  0
 25 27  2  0
 27 28  1  0
 28 29  2  0
 29 30  1  0
M  END
$$$$
