
     RDKit          3D

 30 32  0  0  0  0  0  0  0  0999 V2000
  -12.0896   24.6887    4.0466 P   0  0  2  0  0  5  0  0  0  0  0  0
  -10.9172   25.8809    4.3099 O   0  0  0  0  0  0  0  0  0  0  0  0
  -13.2925   25.3431    3.3939 O   0  0  0  0  0  0  0  0  0  0  0  0
  -12.5563   23.9604    5.4943 O   0  0  0  0  0  0  0  0  0  0  0  0
  -12.6797   22.3547    2.6441 P   0  0  1  0  0  5  0  0  0  0  0  0
  -12.3173   20.9827    3.1907 O   0  0  0  0  0  0  0  0  0  0  0  0
  -14.1876   22.7683    3.2812 O   0  0  0  0  0  0  0  0  0  0  0  0
  -11.5067   23.4944    3.0047 O   0  0  0  0  0  0  0  0  0  0  0  0
  -13.1305   23.6887    0.2256 P   0  0  2  0  0  5  0  0  0  0  0  0
  -12.5490   24.8300    1.0283 O   0  0  0  0  0  0  0  0  0  0  0  0
  -14.7974   23.8769    0.1975 O   0  0  0  0  0  0  0  0  0  0  0  0
  -12.7841   22.2037    0.9611 O   0  0  0  0  0  0  0  0  0  0  0  0
  -12.4372   23.6921   -1.3010 O   0  0  0  0  0  0  0  0  0  0  0  0
  -12.6769   24.8637   -2.0014 C   0  0  0  0  0  0  0  0  0  0  0  0
  -13.2718   24.4838   -3.3382 C   0  0  1  0  0  0  0  0  0  0  0  0
  -14.0121   23.3052   -3.2606 O   0  0  0  0  0  0  0  0  0  0  0  0
  -14.2441   25.5825   -3.7158 C   0  0  1  0  0  0  0  0  0  0  0  0
  -13.7404   26.3140   -4.8135 O   0  0  0  0  0  0  0  0  0  0  0  0
  -15.4416   24.7671   -4.2024 C   0  0  0  0  0  0  0  0  0  0  0  0
  -14.7904   23.4196   -4.4353 C   0  0  2  0  0  0  0  0  0  0  0  0
  -15.7341   22.3589   -4.5610 N   0  0  0  0  0  0  0  0  0  0  0  0
  -16.4913   21.8118   -3.5939 C   0  0  0  0  0  0  0  0  0  0  0  0
  -17.2574   20.8301   -4.1184 N   0  0  0  0  0  0  0  0  0  0  0  0
  -17.0013   20.7351   -5.4288 C   0  0  0  0  0  0  0  0  0  0  0  0
  -17.5099   19.9048   -6.4045 C   0  0  0  0  0  0  0  0  0  0  0  0
  -18.4913   18.9092   -6.1574 N   0  0  0  0  0  0  0  0  0  0  0  0
  -17.0405   20.0586   -7.6552 N   0  0  0  0  0  0  0  0  0  0  0  0
  -16.0970   21.0021   -7.9415 C   0  0  0  0  0  0  0  0  0  0  0  0
  -15.6126   21.8029   -6.9770 N   0  0  0  0  0  0  0  0  0  0  0  0
  -16.0414   21.7026   -5.6935 C   0  0  0  0  0  0  0  0  0  0  0  0
  1  2  1  1
  1  3  2  0
  1  4  1  0
  8  1  1  0
  5  6  2  0
  5  7  1  1
  5  8  1  0
 12  5  1  0
  9 10  2  0
  9 11  1  6
  9 12  1  0
  9 13  1  0
 13 14  1  0
 15 14  1  1
 15 16  1  0
 15 17  1  0
 16 20  1  0
 17 18  1  6
 17 19  1  0
 19 20  1  0
 20 21  1  1
 21 22  1  0
 21 30  1  0
 22 23  2  0
 23 24  1  0
 24 25  1  0
 24 30  2  0
 25 26  1  0
 25 27  2  0
 27 28  1  0
 28 29  2  0
 29 30  1  0
M  END
$$$$
