
     RDKit          3D

 30 32  0  0  0  0  0  0  0  0999 V2000
  -14.2767   26.3802    0.6955 P   0  0  2  0  0  5  0  0  0  0  0  0
  -14.6882   26.4646   -0.9442 O   0  0  0  0  0  0  0  0  0  0  0  0
  -15.2801   27.2054    1.4788 O   0  0  0  0  0  0  0  0  0  0  0  0
  -12.7210   26.9722    0.9664 O   0  0  0  0  0  0  0  0  0  0  0  0
  -13.8366   24.6557    2.8392 P   0  0  1  0  0  5  0  0  0  0  0  0
  -12.9637   25.8326    3.2459 O   0  0  0  0  0  0  0  0  0  0  0  0
  -15.1274   24.5872    3.9254 O   0  0  0  0  0  0  0  0  0  0  0  0
  -14.3527   24.7874    1.2514 O   0  0  0  0  0  0  0  0  0  0  0  0
  -11.6554   23.2296    1.8191 P   0  0  2  0  0  5  0  0  0  0  0  0
  -10.7201   24.4035    1.9984 O   0  0  0  0  0  0  0  0  0  0  0  0
  -12.3686   23.3667    0.3068 O   0  0  0  0  0  0  0  0  0  0  0  0
  -12.8852   23.2627    2.9822 O   0  0  0  0  0  0  0  0  0  0  0  0
  -10.7859   21.8096    2.0158 O   0  0  0  0  0  0  0  0  0  0  0  0
  -10.1632   21.3907    0.8506 C   0  0  0  0  0  0  0  0  0  0  0  0
   -9.1700   20.3142    1.2244 C   0  0  1  0  0  0  0  0  0  0  0  0
   -9.5272   19.0735    0.6988 O   0  0  0  0  0  0  0  0  0  0  0  0
   -7.8495   20.6920    0.5851 C   0  0  1  0  0  0  0  0  0  0  0  0
   -6.9226   21.0669    1.5820 O   0  0  0  0  0  0  0  0  0  0  0  0
   -7.4029   19.3497    0.0070 C   0  0  0  0  0  0  0  0  0  0  0  0
   -8.2881   18.3982    0.7848 C   0  0  2  0  0  0  0  0  0  0  0  0
   -8.3447   17.0947    0.2108 N   0  0  0  0  0  0  0  0  0  0  0  0
   -7.9664   16.7220   -1.0244 C   0  0  0  0  0  0  0  0  0  0  0  0
   -8.1803   15.3974   -1.1840 N   0  0  0  0  0  0  0  0  0  0  0  0
   -8.6986   14.9037   -0.0529 C   0  0  0  0  0  0  0  0  0  0  0  0
   -9.0897   13.6288    0.2963 C   0  0  0  0  0  0  0  0  0  0  0  0
   -8.9987   12.5114   -0.5747 N   0  0  0  0  0  0  0  0  0  0  0  0
   -9.5827   13.4495    1.5345 N   0  0  0  0  0  0  0  0  0  0  0  0
   -9.6894   14.4932    2.4073 C   0  0  0  0  0  0  0  0  0  0  0  0
   -9.3030   15.7295    2.0491 N   0  0  0  0  0  0  0  0  0  0  0  0
   -8.7966   15.9823    0.8157 C   0  0  0  0  0  0  0  0  0  0  0  0
  1  2  1  6
  1  3  2  0
  1  4  1  0
  8  1  1  0
  5  6  2  0
  5  7  1  1
  5  8  1  0
 12  5  1  0
  9 10  2  0
  9 11  1  6
  9 12  1  0
  9 13  1  0
 13 14  1  0
 15 14  1  6
 15 16  1  0
 15 17  1  0
 16 20  1  0
 17 18  1  1
 17 19  1  0
 19 20  1  0
 20 21  1  6
 21 22  1  0
 21 30  1  0
 22 23  2  0
 23 24  1  0
 24 25  1  0
 24 30  2  0
 25 26  1  0
 25 27  2  0
 27 28  1  0
 28 29  2  0
 29 30  1  0
M  END
$$$$
