
     RDKit          3D

 30 32  0  0  0  0  0  0  0  0999 V2000
  -14.7791   26.4289   -0.8301 P   0  0  2  0  0  5  0  0  0  0  0  0
  -16.2713   25.6375   -0.9393 O   0  0  0  0  0  0  0  0  0  0  0  0
  -14.8631   27.4457    0.2926 O   0  0  0  0  0  0  0  0  0  0  0  0
  -14.3944   27.2097   -2.2746 O   0  0  0  0  0  0  0  0  0  0  0  0
  -13.6303   24.8113    1.1261 P   0  0  1  0  0  5  0  0  0  0  0  0
  -13.5155   25.9682    2.1064 O   0  0  0  0  0  0  0  0  0  0  0  0
  -15.0802   24.0123    1.4578 O   0  0  0  0  0  0  0  0  0  0  0  0
  -13.5460   25.3352   -0.4624 O   0  0  0  0  0  0  0  0  0  0  0  0
  -12.5324   22.2769    0.6749 P   0  0  2  0  0  5  0  0  0  0  0  0
  -12.8083   22.4499   -0.8013 O   0  0  0  0  0  0  0  0  0  0  0  0
  -13.8716   21.5387    1.3651 O   0  0  0  0  0  0  0  0  0  0  0  0
  -12.3204   23.7807    1.4232 O   0  0  0  0  0  0  0  0  0  0  0  0
  -11.1191   21.3944    0.8618 O   0  0  0  0  0  0  0  0  0  0  0  0
  -10.1940   22.0218    1.6810 C   0  0  0  0  0  0  0  0  0  0  0  0
   -8.8726   21.3078    1.5093 C   0  0  1  0  0  0  0  0  0  0  0  0
   -8.9123   20.0124    2.0228 O   0  0  0  0  0  0  0  0  0  0  0  0
   -8.6334   21.1764    0.0191 C   0  0  1  0  0  0  0  0  0  0  0  0
   -7.5612   22.0082   -0.3708 O   0  0  0  0  0  0  0  0  0  0  0  0
   -8.1647   19.7253   -0.0811 C   0  0  0  0  0  0  0  0  0  0  0  0
   -7.7982   19.4461    1.3618 C   0  0  2  0  0  0  0  0  0  0  0  0
   -7.6562   18.0557    1.6415 N   0  0  0  0  0  0  0  0  0  0  0  0
   -8.0043   17.0188    0.8595 C   0  0  0  0  0  0  0  0  0  0  0  0
   -7.7064   15.8587    1.4851 N   0  0  0  0  0  0  0  0  0  0  0  0
   -7.1633   16.1370    2.6765 C   0  0  0  0  0  0  0  0  0  0  0  0
   -6.6940   15.3206    3.6832 C   0  0  0  0  0  0  0  0  0  0  0  0
   -6.7098   13.9025    3.6181 N   0  0  0  0  0  0  0  0  0  0  0  0
   -6.1965   15.9155    4.7818 N   0  0  0  0  0  0  0  0  0  0  0  0
   -6.1601   17.2754    4.8901 C   0  0  0  0  0  0  0  0  0  0  0  0
   -6.6223   18.0555    3.8982 N   0  0  0  0  0  0  0  0  0  0  0  0
   -7.1378   17.5225    2.7617 C   0  0  0  0  0  0  0  0  0  0  0  0
  1  2  1  6
  1  3  2  0
  1  4  1  0
  8  1  1  0
  5  6  2  0
  5  7  1  6
  5  8  1  0
 12  5  1  0
  9 10  2  0
  9 11  1  1
  9 12  1  0
  9 13  1  0
 13 14  1  0
 15 14  1  6
 15 16  1  0
 15 17  1  0
 16 20  1  0
 17 18  1  1
 17 19  1  0
 19 20  1  0
 20 21  1  6
 21 22  1  0
 21 30  1  0
 22 23  2  0
 23 24  1  0
 24 25  1  0
 24 30  2  0
 25 26  1  0
 25 27  2  0
 27 28  1  0
 28 29  2  0
 29 30  1  0
M  END
$$$$
