
     RDKit          3D

 30 32  0  0  0  0  0  0  0  0999 V2000
  -16.6447   26.1650   -3.8507 P   0  0  2  0  0  5  0  0  0  0  0  0
  -17.4527   25.3876   -5.1187 O   0  0  0  0  0  0  0  0  0  0  0  0
  -17.6655   26.5230   -2.7872 O   0  0  0  0  0  0  0  0  0  0  0  0
  -15.8696   27.5637   -4.3864 O   0  0  0  0  0  0  0  0  0  0  0  0
  -13.9647   25.4052   -3.7869 P   0  0  1  0  0  5  0  0  0  0  0  0
  -13.2973   24.1041   -4.2041 O   0  0  0  0  0  0  0  0  0  0  0  0
  -13.9983   26.4111   -5.1425 O   0  0  0  0  0  0  0  0  0  0  0  0
  -15.4940   25.1421   -3.1567 O   0  0  0  0  0  0  0  0  0  0  0  0
  -12.3483   24.9093   -1.5568 P   0  0  2  0  0  5  0  0  0  0  0  0
  -11.7428   25.5431   -0.3253 O   0  0  0  0  0  0  0  0  0  0  0  0
  -11.1207   24.1221   -2.3863 O   0  0  0  0  0  0  0  0  0  0  0  0
  -12.9961   26.0922   -2.5802 O   0  0  0  0  0  0  0  0  0  0  0  0
  -13.5907   23.8872   -1.0845 O   0  0  0  0  0  0  0  0  0  0  0  0
  -14.2605   24.3351    0.0431 C   0  0  0  0  0  0  0  0  0  0  0  0
  -14.1610   23.2531    1.0941 C   0  0  1  0  0  0  0  0  0  0  0  0
  -13.1512   22.3375    0.8022 O   0  0  0  0  0  0  0  0  0  0  0  0
  -13.7688   23.9326    2.3901 C   0  0  1  0  0  0  0  0  0  0  0  0
  -14.8485   23.8940    3.2991 O   0  0  0  0  0  0  0  0  0  0  0  0
  -12.6841   22.9878    2.9061 C   0  0  0  0  0  0  0  0  0  0  0  0
  -12.9665   21.7527    2.0761 C   0  0  2  0  0  0  0  0  0  0  0  0
  -11.8922   20.8161    2.0875 N   0  0  0  0  0  0  0  0  0  0  0  0
  -10.6224   21.0150    1.6927 C   0  0  0  0  0  0  0  0  0  0  0  0
   -9.9115   19.8784    1.8616 N   0  0  0  0  0  0  0  0  0  0  0  0
  -10.7166   18.9359    2.3670 C   0  0  0  0  0  0  0  0  0  0  0  0
  -10.4843   17.6228    2.7164 C   0  0  0  0  0  0  0  0  0  0  0  0
   -9.2228   16.9849    2.5854 N   0  0  0  0  0  0  0  0  0  0  0  0
  -11.5203   16.9200    3.2075 N   0  0  0  0  0  0  0  0  0  0  0  0
  -12.7517   17.4900    3.3520 C   0  0  0  0  0  0  0  0  0  0  0  0
  -12.9595   18.7719    3.0059 N   0  0  0  0  0  0  0  0  0  0  0  0
  -11.9593   19.5395    2.5040 C   0  0  0  0  0  0  0  0  0  0  0  0
  1  2  1  6
  1  3  2  0
  1  4  1  0
  8  1  1  0
  5  6  2  0
  5  7  1  6
  5  8  1  0
 12  5  1  0
  9 10  2  0
  9 11  1  6
  9 12  1  0
  9 13  1  0
 13 14  1  0
 15 14  1  6
 15 16  1  0
 15 17  1  0
 16 20  1  0
 17 18  1  1
 17 19  1  0
 19 20  1  0
 20 21  1  6
 21 22  1  0
 21 30  1  0
 22 23  2  0
 23 24  1  0
 24 25  1  0
 24 30  2  0
 25 26  1  0
 25 27  2  0
 27 28  1  0
 28 29  2  0
 29 30  1  0
M  END
$$$$
