
     RDKit          3D

 30 32  0  0  0  0  0  0  0  0999 V2000
   -9.3695   24.9995    3.4110 P   0  0  2  0  0  5  0  0  0  0  0  0
  -10.1517   25.9333    4.5829 O   0  0  0  0  0  0  0  0  0  0  0  0
   -8.2931   24.1796    4.0778 O   0  0  0  0  0  0  0  0  0  0  0  0
   -8.6958   25.9582    2.1905 O   0  0  0  0  0  0  0  0  0  0  0  0
  -12.0368   24.7479    2.8709 P   0  0  1  0  0  5  0  0  0  0  0  0
  -12.6807   24.3708    4.1888 O   0  0  0  0  0  0  0  0  0  0  0  0
  -11.7641   26.4327    2.8059 O   0  0  0  0  0  0  0  0  0  0  0  0
  -10.5300   23.9996    2.6969 O   0  0  0  0  0  0  0  0  0  0  0  0
  -13.2634   22.6532    1.6144 P   0  0  2  0  0  5  0  0  0  0  0  0
  -13.6287   22.1838    2.9987 O   0  0  0  0  0  0  0  0  0  0  0  0
  -11.7948   21.9342    1.1151 O   0  0  0  0  0  0  0  0  0  0  0  0
  -13.0162   24.3247    1.5606 O   0  0  0  0  0  0  0  0  0  0  0  0
  -14.4803   22.2781    0.5018 O   0  0  0  0  0  0  0  0  0  0  0  0
  -15.2584   23.4438    0.3194 C   0  0  0  0  0  0  0  0  0  0  0  0
  -16.0863   23.2004   -0.9206 C   0  0  1  0  0  0  0  0  0  0  0  0
  -15.3937   22.5441   -1.9110 O   0  0  0  0  0  0  0  0  0  0  0  0
  -17.1576   22.1688   -0.5581 C   0  0  1  0  0  0  0  0  0  0  0  0
  -18.1770   22.8534    0.0670 O   0  0  0  0  0  0  0  0  0  0  0  0
  -17.5761   21.7214   -1.9650 C   0  0  0  0  0  0  0  0  0  0  0  0
  -16.3254   21.9561   -2.7439 C   0  0  2  0  0  0  0  0  0  0  0  0
  -15.7923   20.7480   -3.3406 N   0  0  0  0  0  0  0  0  0  0  0  0
  -14.7961   19.9893   -2.8532 C   0  0  0  0  0  0  0  0  0  0  0  0
  -14.5664   18.9418   -3.6737 N   0  0  0  0  0  0  0  0  0  0  0  0
  -15.4158   19.0092   -4.7088 C   0  0  0  0  0  0  0  0  0  0  0  0
  -15.6078   18.2042   -5.8197 C   0  0  0  0  0  0  0  0  0  0  0  0
  -14.8296   17.0368   -6.0536 N   0  0  0  0  0  0  0  0  0  0  0  0
  -16.5808   18.5950   -6.6702 N   0  0  0  0  0  0  0  0  0  0  0  0
  -17.3147   19.6999   -6.4455 C   0  0  0  0  0  0  0  0  0  0  0  0
  -17.1341   20.4931   -5.3623 N   0  0  0  0  0  0  0  0  0  0  0  0
  -16.1746   20.1404   -4.4885 C   0  0  0  0  0  0  0  0  0  0  0  0
  1  2  1  1
  1  3  2  0
  1  4  1  0
  8  1  1  0
  5  6  2  0
  5  7  1  1
  5  8  1  0
 12  5  1  0
  9 10  2  0
  9 11  1  6
  9 12  1  0
  9 13  1  0
 14 13  1  1
 14 15  1  0
 15 16  1  6
 15 17  1  0
 16 20  1  0
 17 18  1  6
 17 19  1  0
 19 20  1  6
 20 21  1  1
 21 22  1  0
 21 30  1  0
 22 23  2  0
 23 24  1  0
 24 25  1  0
 24 30  2  0
 25 26  1  0
 25 27  2  0
 27 28  1  0
 28 29  2  0
 29 30  1  0
M  END
$$$$
