
     RDKit          3D

 30 32  0  0  0  0  0  0  0  0999 V2000
  -12.2718   22.3610    2.2324 P   0  0  2  0  0  5  0  0  0  0  0  0
  -10.7427   22.2402    1.5222 O   0  0  0  0  0  0  0  0  0  0  0  0
  -12.1105   22.7865    3.6706 O   0  0  0  0  0  0  0  0  0  0  0  0
  -13.1192   20.8987    2.1518 O   0  0  0  0  0  0  0  0  0  0  0  0
  -14.4172   24.0506    2.3430 P   0  0  1  0  0  5  0  0  0  0  0  0
  -15.5145   23.0104    2.4314 O   0  0  0  0  0  0  0  0  0  0  0  0
  -13.7548   24.3452    3.8895 O   0  0  0  0  0  0  0  0  0  0  0  0
  -13.1500   23.5122    1.3607 O   0  0  0  0  0  0  0  0  0  0  0  0
  -14.6479   25.5703    0.0829 P   0  0  2  0  0  5  0  0  0  0  0  0
  -13.1646   25.5181   -0.1765 O   0  0  0  0  0  0  0  0  0  0  0  0
  -15.2978   27.0411   -0.4982 O   0  0  0  0  0  0  0  0  0  0  0  0
  -15.0009   25.5151    1.7352 O   0  0  0  0  0  0  0  0  0  0  0  0
  -15.4426   24.2733   -0.6556 O   0  0  0  0  0  0  0  0  0  0  0  0
  -16.2264   24.8023   -1.7061 C   0  0  0  0  0  0  0  0  0  0  0  0
  -16.9957   23.6350   -2.2785 C   0  0  1  0  0  0  0  0  0  0  0  0
  -16.6600   23.3555   -3.5825 O   0  0  0  0  0  0  0  0  0  0  0  0
  -16.5121   22.3735   -1.5586 C   0  0  1  0  0  0  0  0  0  0  0  0
  -17.1872   22.3140   -0.3589 O   0  0  0  0  0  0  0  0  0  0  0  0
  -17.0244   21.3042   -2.5327 C   0  0  0  0  0  0  0  0  0  0  0  0
  -17.0197   22.0448   -3.8280 C   0  0  2  0  0  0  0  0  0  0  0  0
  -16.1477   21.4491   -4.8202 N   0  0  0  0  0  0  0  0  0  0  0  0
  -14.8115   21.5750   -4.8874 C   0  0  0  0  0  0  0  0  0  0  0  0
  -14.3327   20.8826   -5.9431 N   0  0  0  0  0  0  0  0  0  0  0  0
  -15.3585   20.2963   -6.5767 C   0  0  0  0  0  0  0  0  0  0  0  0
  -15.4299   19.4857   -7.6978 C   0  0  0  0  0  0  0  0  0  0  0  0
  -14.2738   19.1089   -8.4356 N   0  0  0  0  0  0  0  0  0  0  0  0
  -16.6664   19.0733   -8.0497 N   0  0  0  0  0  0  0  0  0  0  0  0
  -17.7576   19.4320   -7.3492 C   0  0  0  0  0  0  0  0  0  0  0  0
  -17.6976   20.2241   -6.2519 N   0  0  0  0  0  0  0  0  0  0  0  0
  -16.4846   20.6579   -5.8659 C   0  0  0  0  0  0  0  0  0  0  0  0
  1  2  1  6
  1  3  2  0
  1  4  1  0
  8  1  1  0
  5  6  2  0
  5  7  1  1
  5  8  1  0
 12  5  1  0
  9 10  2  0
  9 11  1  6
  9 12  1  0
  9 13  1  0
 14 13  1  1
 14 15  1  0
 15 16  1  6
 15 17  1  0
 16 20  1  0
 17 18  1  1
 17 19  1  0
 19 20  1  6
 20 21  1  6
 21 22  1  0
 21 30  1  0
 22 23  2  0
 23 24  1  0
 24 25  1  0
 24 30  2  0
 25 26  1  0
 25 27  2  0
 27 28  1  0
 28 29  2  0
 29 30  1  0
M  END
$$$$
