
     RDKit          3D

 30 32  0  0  0  0  0  0  0  0999 V2000
  -12.7791   26.4670    4.4421 P   0  0  2  0  0  5  0  0  0  0  0  0
  -11.8279   25.0800    4.6107 O   0  0  0  0  0  0  0  0  0  0  0  0
  -12.5941   27.0205    3.0511 O   0  0  0  0  0  0  0  0  0  0  0  0
  -12.3835   27.6437    5.5918 O   0  0  0  0  0  0  0  0  0  0  0  0
  -14.7588   24.7737    3.6155 P   0  0  1  0  0  5  0  0  0  0  0  0
  -16.1472   24.2262    3.8726 O   0  0  0  0  0  0  0  0  0  0  0  0
  -14.6667   25.4410    2.0460 O   0  0  0  0  0  0  0  0  0  0  0  0
  -14.3876   26.0173    4.7002 O   0  0  0  0  0  0  0  0  0  0  0  0
  -13.3032   22.9504    2.1914 P   0  0  2  0  0  5  0  0  0  0  0  0
  -13.1445   24.0483    1.1719 O   0  0  0  0  0  0  0  0  0  0  0  0
  -14.6565   21.9787    1.8074 O   0  0  0  0  0  0  0  0  0  0  0  0
  -13.5845   23.5652    3.7409 O   0  0  0  0  0  0  0  0  0  0  0  0
  -11.9187   21.9825    2.2666 O   0  0  0  0  0  0  0  0  0  0  0  0
  -10.8067   22.8464    2.3887 C   0  0  0  0  0  0  0  0  0  0  0  0
   -9.8258   22.4133    1.3247 C   0  0  1  0  0  0  0  0  0  0  0  0
   -9.3300   21.1473    1.5316 O   0  0  0  0  0  0  0  0  0  0  0  0
  -10.6147   22.2269    0.0261 C   0  0  1  0  0  0  0  0  0  0  0  0
  -10.7677   23.4775   -0.5319 O   0  0  0  0  0  0  0  0  0  0  0  0
   -9.6091   21.3866   -0.7722 C   0  0  0  0  0  0  0  0  0  0  0  0
   -8.8696   20.6820    0.3154 C   0  0  2  0  0  0  0  0  0  0  0  0
   -8.9851   19.2396    0.2392 N   0  0  0  0  0  0  0  0  0  0  0  0
  -10.0951   18.5148    0.4588 C   0  0  0  0  0  0  0  0  0  0  0  0
   -9.8304   17.2005    0.2987 N   0  0  0  0  0  0  0  0  0  0  0  0
   -8.5383   17.0565   -0.0286 C   0  0  0  0  0  0  0  0  0  0  0  0
   -7.7568   15.9456   -0.3007 C   0  0  0  0  0  0  0  0  0  0  0  0
   -8.2808   14.6237   -0.2679 N   0  0  0  0  0  0  0  0  0  0  0  0
   -6.4637   16.1930   -0.5999 N   0  0  0  0  0  0  0  0  0  0  0  0
   -5.9718   17.4448   -0.6297 C   0  0  0  0  0  0  0  0  0  0  0  0
   -6.7281   18.5370   -0.3651 N   0  0  0  0  0  0  0  0  0  0  0  0
   -8.0229   18.3361   -0.0622 C   0  0  0  0  0  0  0  0  0  0  0  0
  1  2  1  6
  1  3  2  0
  1  4  1  0
  8  1  1  0
  5  6  2  0
  5  7  1  6
  5  8  1  0
 12  5  1  0
  9 10  2  0
  9 11  1  6
  9 12  1  0
  9 13  1  0
 14 13  1  1
 14 15  1  0
 15 16  1  1
 15 17  1  0
 16 20  1  0
 17 18  1  6
 17 19  1  0
 19 20  1  6
 20 21  1  1
 21 22  1  0
 21 30  1  0
 22 23  2  0
 23 24  1  0
 24 25  1  0
 24 30  2  0
 25 26  1  0
 25 27  2  0
 27 28  1  0
 28 29  2  0
 29 30  1  0
M  END
$$$$
