
     RDKit          3D

 30 32  0  0  0  0  0  0  0  0999 V2000
  -12.7816   27.0328    0.3029 P   0  0  2  0  0  5  0  0  0  0  0  0
  -11.2765   26.4491   -0.2057 O   0  0  0  0  0  0  0  0  0  0  0  0
  -13.1779   28.1790   -0.6084 O   0  0  0  0  0  0  0  0  0  0  0  0
  -12.7198   27.5730    1.8993 O   0  0  0  0  0  0  0  0  0  0  0  0
  -15.0140   25.8598    1.4877 P   0  0  1  0  0  5  0  0  0  0  0  0
  -15.1100   27.2477    2.1017 O   0  0  0  0  0  0  0  0  0  0  0  0
  -16.5774   25.3914    1.0550 O   0  0  0  0  0  0  0  0  0  0  0  0
  -13.9618   25.8307    0.1850 O   0  0  0  0  0  0  0  0  0  0  0  0
  -14.5859   23.2023    2.2534 P   0  0  2  0  0  5  0  0  0  0  0  0
  -15.9239   22.9672    1.5904 O   0  0  0  0  0  0  0  0  0  0  0  0
  -14.5384   22.2827    3.6559 O   0  0  0  0  0  0  0  0  0  0  0  0
  -14.4125   24.8292    2.6886 O   0  0  0  0  0  0  0  0  0  0  0  0
  -13.3682   22.8176    1.1669 O   0  0  0  0  0  0  0  0  0  0  0  0
  -12.1658   22.5157    1.7865 C   0  0  0  0  0  0  0  0  0  0  0  0
  -11.4518   21.4971    0.9276 C   0  0  1  0  0  0  0  0  0  0  0  0
  -12.3470   20.6702    0.2508 O   0  0  0  0  0  0  0  0  0  0  0  0
  -10.6902   22.2692   -0.1302 C   0  0  1  0  0  0  0  0  0  0  0  0
   -9.3020   22.1686    0.1073 O   0  0  0  0  0  0  0  0  0  0  0  0
  -11.0140   21.4572   -1.3836 C   0  0  0  0  0  0  0  0  0  0  0  0
  -11.5032   20.1643   -0.7645 C   0  0  2  0  0  0  0  0  0  0  0  0
  -12.2075   19.3365   -1.6866 N   0  0  0  0  0  0  0  0  0  0  0  0
  -13.2092   19.6896   -2.5111 C   0  0  0  0  0  0  0  0  0  0  0  0
  -13.6085   18.6148   -3.2261 N   0  0  0  0  0  0  0  0  0  0  0  0
  -12.8677   17.5586   -2.8692 C   0  0  0  0  0  0  0  0  0  0  0  0
  -12.8763   16.2472   -3.2941 C   0  0  0  0  0  0  0  0  0  0  0  0
  -13.7632   15.7462   -4.2830 N   0  0  0  0  0  0  0  0  0  0  0  0
  -11.9890   15.4080   -2.7313 N   0  0  0  0  0  0  0  0  0  0  0  0
  -11.1163   15.8434   -1.7768 C   0  0  0  0  0  0  0  0  0  0  0  0
  -11.1226   17.1258   -1.3749 N   0  0  0  0  0  0  0  0  0  0  0  0
  -11.9907   18.0268   -1.9002 C   0  0  0  0  0  0  0  0  0  0  0  0
  1  2  1  6
  1  3  2  0
  1  4  1  0
  8  1  1  0
  5  6  2  0
  5  7  1  6
  5  8  1  0
 12  5  1  0
  9 10  2  0
  9 11  1  1
  9 12  1  0
  9 13  1  0
 13 14  1  0
 15 14  1  1
 15 16  1  0
 15 17  1  0
 16 20  1  0
 17 18  1  1
 17 19  1  0
 19 20  1  0
 20 21  1  6
 21 22  1  0
 21 30  1  0
 22 23  2  0
 23 24  1  0
 24 25  1  0
 24 30  2  0
 25 26  1  0
 25 27  2  0
 27 28  1  0
 28 29  2  0
 29 30  1  0
M  END
$$$$
