
     RDKit          3D

 30 32  0  0  0  0  0  0  0  0999 V2000
  -16.9012   26.2652   -1.2004 P   0  0  2  0  0  5  0  0  0  0  0  0
  -17.2251   27.7491   -1.9423 O   0  0  0  0  0  0  0  0  0  0  0  0
  -17.1784   25.1560   -2.1843 O   0  0  0  0  0  0  0  0  0  0  0  0
  -17.8292   26.0459    0.1973 O   0  0  0  0  0  0  0  0  0  0  0  0
  -14.6217   24.7588   -1.1365 P   0  0  1  0  0  5  0  0  0  0  0  0
  -14.5505   24.5748   -2.6380 O   0  0  0  0  0  0  0  0  0  0  0  0
  -13.0551   24.7035   -0.4583 O   0  0  0  0  0  0  0  0  0  0  0  0
  -15.2746   26.2682   -0.7415 O   0  0  0  0  0  0  0  0  0  0  0  0
  -14.8769   23.2161    1.1055 P   0  0  2  0  0  5  0  0  0  0  0  0
  -15.0340   21.7660    1.4830 O   0  0  0  0  0  0  0  0  0  0  0  0
  -15.6992   24.2110    2.2268 O   0  0  0  0  0  0  0  0  0  0  0  0
  -15.5508   23.5496   -0.4086 O   0  0  0  0  0  0  0  0  0  0  0  0
  -13.2460   23.6593    1.0505 O   0  0  0  0  0  0  0  0  0  0  0  0
  -12.7469   23.5947    2.3713 C   0  0  0  0  0  0  0  0  0  0  0  0
  -11.3569   23.0136    2.2619 C   0  0  1  0  0  0  0  0  0  0  0  0
  -11.3560   21.6642    1.9961 O   0  0  0  0  0  0  0  0  0  0  0  0
  -10.7254   23.5792    0.9873 C   0  0  1  0  0  0  0  0  0  0  0  0
  -10.2470   24.8330    1.3003 O   0  0  0  0  0  0  0  0  0  0  0  0
   -9.5747   22.5812    0.8007 C   0  0  0  0  0  0  0  0  0  0  0  0
  -10.1281   21.3545    1.4448 C   0  0  2  0  0  0  0  0  0  0  0  0
  -10.2416   20.2350    0.5318 N   0  0  0  0  0  0  0  0  0  0  0  0
  -10.9955   20.1845   -0.5795 C   0  0  0  0  0  0  0  0  0  0  0  0
  -10.8540   18.9844   -1.1821 N   0  0  0  0  0  0  0  0  0  0  0  0
  -10.0019   18.2383   -0.4647 C   0  0  0  0  0  0  0  0  0  0  0  0
   -9.5128   16.9526   -0.6282 C   0  0  0  0  0  0  0  0  0  0  0  0
   -9.8940   16.1302   -1.7243 N   0  0  0  0  0  0  0  0  0  0  0  0
   -8.6500   16.5250    0.3181 N   0  0  0  0  0  0  0  0  0  0  0  0
   -8.2920   17.3059    1.3535 C   0  0  0  0  0  0  0  0  0  0  0  0
   -8.7649   18.5641    1.5216 N   0  0  0  0  0  0  0  0  0  0  0  0
   -9.6276   19.0304    0.6014 C   0  0  0  0  0  0  0  0  0  0  0  0
  1  2  1  6
  1  3  2  0
  1  4  1  0
  8  1  1  0
  5  6  2  0
  5  7  1  1
  5  8  1  0
 12  5  1  0
  9 10  2  0
  9 11  1  1
  9 12  1  0
  9 13  1  0
 14 13  1  1
 14 15  1  0
 15 16  1  6
 15 17  1  0
 16 20  1  0
 17 18  1  1
 17 19  1  0
 19 20  1  6
 20 21  1  6
 21 22  1  0
 21 30  1  0
 22 23  2  0
 23 24  1  0
 24 25  1  0
 24 30  2  0
 25 26  1  0
 25 27  2  0
 27 28  1  0
 28 29  2  0
 29 30  1  0
M  END
$$$$
