
     RDKit          3D

 30 32  0  0  0  0  0  0  0  0999 V2000
  -15.1820   27.9764   -1.9235 P   0  0  2  0  0  5  0  0  0  0  0  0
  -16.8251   28.0812   -1.5410 O   0  0  0  0  0  0  0  0  0  0  0  0
  -14.4807   29.2088   -1.4085 O   0  0  0  0  0  0  0  0  0  0  0  0
  -14.9334   27.8215   -3.5899 O   0  0  0  0  0  0  0  0  0  0  0  0
  -14.9371   25.2661   -2.1759 P   0  0  1  0  0  5  0  0  0  0  0  0
  -16.4283   25.1673   -2.4213 O   0  0  0  0  0  0  0  0  0  0  0  0
  -14.1096   25.5125   -3.6495 O   0  0  0  0  0  0  0  0  0  0  0  0
  -14.5730   26.5852   -1.1819 O   0  0  0  0  0  0  0  0  0  0  0  0
  -15.6311   22.8053   -1.2095 P   0  0  2  0  0  5  0  0  0  0  0  0
  -15.6466   21.6793   -2.2106 O   0  0  0  0  0  0  0  0  0  0  0  0
  -17.0497   23.7479   -1.3586 O   0  0  0  0  0  0  0  0  0  0  0  0
  -14.3328   23.8575   -1.4647 O   0  0  0  0  0  0  0  0  0  0  0  0
  -15.5110   22.2154    0.3707 O   0  0  0  0  0  0  0  0  0  0  0  0
  -15.0932   23.2884    1.1904 C   0  0  0  0  0  0  0  0  0  0  0  0
  -14.1351   22.6940    2.1957 C   0  0  1  0  0  0  0  0  0  0  0  0
  -13.4508   21.6046    1.7096 O   0  0  0  0  0  0  0  0  0  0  0  0
  -13.0027   23.7040    2.3984 C   0  0  1  0  0  0  0  0  0  0  0  0
  -13.4614   24.6448    3.2946 O   0  0  0  0  0  0  0  0  0  0  0  0
  -11.9522   22.7921    3.0464 C   0  0  0  0  0  0  0  0  0  0  0  0
  -12.3093   21.4614    2.4739 C   0  0  2  0  0  0  0  0  0  0  0  0
  -11.2390   20.8720    1.6949 N   0  0  0  0  0  0  0  0  0  0  0  0
  -10.6226   21.4265    0.6373 C   0  0  0  0  0  0  0  0  0  0  0  0
   -9.6750   20.5905    0.1616 N   0  0  0  0  0  0  0  0  0  0  0  0
   -9.6656   19.4776    0.9093 C   0  0  0  0  0  0  0  0  0  0  0  0
   -8.9062   18.3201    0.8604 C   0  0  0  0  0  0  0  0  0  0  0  0
   -7.8943   18.1181   -0.1184 N   0  0  0  0  0  0  0  0  0  0  0  0
   -9.1849   17.3917    1.8003 N   0  0  0  0  0  0  0  0  0  0  0  0
  -10.1431   17.5865    2.7244 C   0  0  0  0  0  0  0  0  0  0  0  0
  -10.8905   18.7148    2.7800 N   0  0  0  0  0  0  0  0  0  0  0  0
  -10.6459   19.6666    1.8618 C   0  0  0  0  0  0  0  0  0  0  0  0
  1  2  1  6
  1  3  2  0
  1  4  1  0
  8  1  1  0
  5  6  2  0
  5  7  1  6
  5  8  1  0
 12  5  1  0
  9 10  2  0
  9 11  1  1
  9 12  1  0
  9 13  1  0
 14 13  1  1
 14 15  1  0
 15 16  1  6
 15 17  1  0
 16 20  1  0
 17 18  1  1
 17 19  1  0
 19 20  1  6
 20 21  1  6
 21 22  1  0
 21 30  1  0
 22 23  2  0
 23 24  1  0
 24 25  1  0
 24 30  2  0
 25 26  1  0
 25 27  2  0
 27 28  1  0
 28 29  2  0
 29 30  1  0
M  END
$$$$
