
     RDKit          3D

 30 32  0  0  0  0  0  0  0  0999 V2000
  -14.6809   25.1350   -0.9136 P   0  0  2  0  0  5  0  0  0  0  0  0
  -15.6732   25.0964   -2.2843 O   0  0  0  0  0  0  0  0  0  0  0  0
  -14.1644   26.5511   -0.7422 O   0  0  0  0  0  0  0  0  0  0  0  0
  -13.3807   24.0724   -1.0703 O   0  0  0  0  0  0  0  0  0  0  0  0
  -14.6871   23.6925    1.4702 P   0  0  1  0  0  5  0  0  0  0  0  0
  -13.4561   24.3754    2.0454 O   0  0  0  0  0  0  0  0  0  0  0  0
  -15.6103   23.1396    2.7713 O   0  0  0  0  0  0  0  0  0  0  0  0
  -15.5543   24.7192    0.4707 O   0  0  0  0  0  0  0  0  0  0  0  0
  -13.0303   21.4378    1.4138 P   0  0  2  0  0  5  0  0  0  0  0  0
  -13.3431   19.9674    1.2551 O   0  0  0  0  0  0  0  0  0  0  0  0
  -13.1784   21.8224    3.0401 O   0  0  0  0  0  0  0  0  0  0  0  0
  -14.1397   22.3811    0.5502 O   0  0  0  0  0  0  0  0  0  0  0  0
  -11.4990   21.7350    0.7990 O   0  0  0  0  0  0  0  0  0  0  0  0
  -10.5735   22.0503    1.7813 C   0  0  0  0  0  0  0  0  0  0  0  0
   -9.4241   21.0765    1.6561 C   0  0  1  0  0  0  0  0  0  0  0  0
   -9.7058   19.8591    2.2739 O   0  0  0  0  0  0  0  0  0  0  0  0
   -9.2532   20.7842    0.1795 C   0  0  1  0  0  0  0  0  0  0  0  0
   -8.0480   21.3531   -0.2869 O   0  0  0  0  0  0  0  0  0  0  0  0
   -9.0831   19.2656    0.1936 C   0  0  0  0  0  0  0  0  0  0  0  0
   -8.7427   19.0325    1.6509 C   0  0  2  0  0  0  0  0  0  0  0  0
   -8.8710   17.6679    2.0418 N   0  0  0  0  0  0  0  0  0  0  0  0
   -9.9395   16.8656    1.8918 C   0  0  0  0  0  0  0  0  0  0  0  0
   -9.6619   15.6418    2.3929 N   0  0  0  0  0  0  0  0  0  0  0  0
   -8.4115   15.6438    2.8707 C   0  0  0  0  0  0  0  0  0  0  0  0
   -7.6598   14.6594    3.4759 C   0  0  0  0  0  0  0  0  0  0  0  0
   -8.1349   13.3437    3.7185 N   0  0  0  0  0  0  0  0  0  0  0  0
   -6.4087   14.9784    3.8516 N   0  0  0  0  0  0  0  0  0  0  0  0
   -5.9078   16.2300    3.6394 C   0  0  0  0  0  0  0  0  0  0  0  0
   -6.6555   17.1772    3.0478 N   0  0  0  0  0  0  0  0  0  0  0  0
   -7.9260   16.9244    2.6433 C   0  0  0  0  0  0  0  0  0  0  0  0
  1  2  1  6
  1  3  2  0
  1  4  1  0
  8  1  1  0
  5  6  2  0
  5  7  1  1
  5  8  1  0
 12  5  1  0
  9 10  2  0
  9 11  1  1
  9 12  1  0
  9 13  1  0
 13 14  1  0
 15 14  1  6
 15 16  1  0
 15 17  1  0
 16 20  1  0
 17 18  1  1
 17 19  1  0
 19 20  1  0
 20 21  1  1
 21 22  1  0
 21 30  1  0
 22 23  2  0
 23 24  1  0
 24 25  1  0
 24 30  2  0
 25 26  1  0
 25 27  2  0
 27 28  1  0
 28 29  2  0
 29 30  1  0
M  END
$$$$
