
     RDKit          3D

 30 32  0  0  0  0  0  0  0  0999 V2000
  -13.3243   22.7549    2.9202 P   0  0  2  0  0  5  0  0  0  0  0  0
  -14.6026   22.4374    1.8570 O   0  0  0  0  0  0  0  0  0  0  0  0
  -12.7724   21.4284    3.4071 O   0  0  0  0  0  0  0  0  0  0  0  0
  -13.8392   23.6728    4.2380 O   0  0  0  0  0  0  0  0  0  0  0  0
  -12.6041   24.2707    0.6960 P   0  0  1  0  0  5  0  0  0  0  0  0
  -13.7168   25.2817    0.9246 O   0  0  0  0  0  0  0  0  0  0  0  0
  -11.3587   25.0682   -0.1187 O   0  0  0  0  0  0  0  0  0  0  0  0
  -12.0834   23.5878    2.1339 O   0  0  0  0  0  0  0  0  0  0  0  0
  -14.9338   23.1203   -0.3438 P   0  0  2  0  0  5  0  0  0  0  0  0
  -15.4061   24.5554   -0.2936 O   0  0  0  0  0  0  0  0  0  0  0  0
  -15.5378   22.3326    1.0088 O   0  0  0  0  0  0  0  0  0  0  0  0
  -13.2435   23.0453   -0.2814 O   0  0  0  0  0  0  0  0  0  0  0  0
  -15.4360   22.4353   -1.7894 O   0  0  0  0  0  0  0  0  0  0  0  0
  -15.5171   23.3539   -2.8240 C   0  0  0  0  0  0  0  0  0  0  0  0
  -16.3740   22.7448   -3.9102 C   0  0  1  0  0  0  0  0  0  0  0  0
  -15.6039   22.2377   -4.9556 O   0  0  0  0  0  0  0  0  0  0  0  0
  -17.0964   21.5654   -3.2920 C   0  0  1  0  0  0  0  0  0  0  0  0
  -18.4751   21.8495   -3.1827 O   0  0  0  0  0  0  0  0  0  0  0  0
  -16.9184   20.5042   -4.3772 C   0  0  0  0  0  0  0  0  0  0  0  0
  -16.5422   21.3706   -5.5611 C   0  0  2  0  0  0  0  0  0  0  0  0
  -15.9729   20.6282   -6.6364 N   0  0  0  0  0  0  0  0  0  0  0  0
  -14.7122   20.1740   -6.7466 C   0  0  0  0  0  0  0  0  0  0  0  0
  -14.5680   19.5154   -7.9177 N   0  0  0  0  0  0  0  0  0  0  0  0
  -15.7347   19.5388   -8.5734 C   0  0  0  0  0  0  0  0  0  0  0  0
  -16.1115   19.0184   -9.7931 C   0  0  0  0  0  0  0  0  0  0  0  0
  -15.2350   18.2964  -10.6452 N   0  0  0  0  0  0  0  0  0  0  0  0
  -17.3833   19.2138  -10.1836 N   0  0  0  0  0  0  0  0  0  0  0  0
  -18.2627   19.9014   -9.3986 C   0  0  0  0  0  0  0  0  0  0  0  0
  -17.8774   20.4017   -8.2122 N   0  0  0  0  0  0  0  0  0  0  0  0
  -16.6093   20.2419   -7.7560 C   0  0  0  0  0  0  0  0  0  0  0  0
  1  2  1  6
  1  3  2  0
  1  4  1  0
  8  1  1  0
  5  6  2  0
  5  7  1  6
  5  8  1  0
 12  5  1  0
  9 10  2  0
  9 11  1  1
  9 12  1  0
  9 13  1  0
 13 14  1  0
 15 14  1  1
 15 16  1  0
 15 17  1  0
 16 20  1  0
 17 18  1  6
 17 19  1  0
 19 20  1  0
 20 21  1  6
 21 22  1  0
 21 30  1  0
 22 23  2  0
 23 24  1  0
 24 25  1  0
 24 30  2  0
 25 26  1  0
 25 27  2  0
 27 28  1  0
 28 29  2  0
 29 30  1  0
M  END
$$$$
