
     RDKit          3D

118120  0  0  0  0  0  0  0  0999 V2000
    3.3861    8.2487    8.5251 C   0  0  0  0  0  0  0  0  0  0  0  0
    3.8896    7.4381    7.7566 O   0  0  0  0  0  0  0  0  0  0  0  0
    4.0261    9.5676    8.8537 C   0  0  0  0  0  0  0  0  0  0  0  0
    2.1929    8.0207    9.1677 N   0  0  0  0  0  0  0  0  0  0  0  0
    1.2017    7.0706    8.6582 C   0  0  2  0  0  0  0  0  0  0  0  0
    0.2652    7.8976    7.7531 C   0  0  0  0  0  0  0  0  0  0  0  0
    0.4759    9.0928    7.5311 O   0  0  0  0  0  0  0  0  0  0  0  0
    0.4532    6.3808    9.8157 C   0  0  0  0  0  0  0  0  0  0  0  0
    1.3980    5.4976   10.6458 C   0  0  0  0  0  0  0  0  0  0  0  0
    0.7854    4.8424   11.8816 C   0  0  0  0  0  0  0  0  0  0  0  0
    1.1639    3.3755   12.0322 C   0  0  0  0  0  0  0  0  0  0  0  0
    0.5114    2.8353   13.2472 N   0  0  0  0  0  4  0  0  0  0  0  0
   -0.8125    7.2264    7.2058 N   0  0  0  0  0  0  0  0  0  0  0  0
   -1.6415    7.9457    6.2406 C   0  0  2  0  0  0  0  0  0  0  0  0
   -3.0899    7.4416    6.3953 C   0  0  0  0  0  0  0  0  0  0  0  0
   -3.5277    6.4842    5.7623 O   0  0  0  0  0  0  0  0  0  0  0  0
   -1.1852    7.7561    4.7873 C   0  0  0  0  0  0  0  0  0  0  0  0
   -0.0352    8.7007    4.4165 C   0  0  0  0  0  0  0  0  0  0  0  0
    0.1933    8.8227    2.9006 C   0  0  0  0  0  0  0  0  0  0  0  0
    1.2447    9.8682    2.5344 C   0  0  0  0  0  0  0  0  0  0  0  0
    1.3904    9.9214    1.0582 N   0  0  0  0  0  4  0  0  0  0  0  0
   -3.8345    8.1868    7.2817 N   0  0  0  0  0  0  0  0  0  0  0  0
   -5.2535    7.9550    7.4862 C   0  0  2  0  0  0  0  0  0  0  0  0
   -5.9648    7.6855    6.1458 C   0  0  0  0  0  0  0  0  0  0  0  0
   -5.9444    8.4801    5.2051 O   0  0  0  0  0  0  0  0  0  0  0  0
   -5.9052    9.1437    8.2022 C   0  0  0  0  0  0  0  0  0  0  0  0
   -6.4245   10.2655    7.2957 C   0  0  0  0  0  0  0  0  0  0  0  0
   -5.3626   11.3558    7.1438 C   0  0  0  0  0  0  0  0  0  0  0  0
   -5.8289   12.6246    7.6664 N   0  0  0  0  0  0  0  0  0  0  0  0
   -5.0105   13.5444    8.2204 C   0  0  0  0  0  0  0  0  0  0  0  0
   -5.4572   13.9357    9.4293 N   0  0  0  0  0  0  0  0  0  0  0  0
   -3.9524   14.0168    7.6706 N   0  0  0  0  0  0  0  0  0  0  0  0
   -6.6777    6.5064    6.1421 N   0  0  0  0  0  0  0  0  0  0  0  0
   -7.6042    6.1330    5.0690 C   0  0  2  0  0  0  0  0  0  0  0  0
   -8.4469    7.3589    4.6409 C   0  0  0  0  0  0  0  0  0  0  0  0
   -8.3565    8.4675    5.1590 O   0  0  0  0  0  0  0  0  0  0  0  0
   -8.4718    4.8988    5.3849 C   0  0  0  0  0  0  0  0  0  0  0  0
   -7.7334    3.6974    5.9304 C   0  0  0  0  0  0  0  0  0  0  0  0
   -7.0869    2.8074    5.0628 C   0  0  0  0  0  0  0  0  0  0  0  0
   -7.6466    3.4793    7.3149 C   0  0  0  0  0  0  0  0  0  0  0  0
   -6.3657    1.7189    5.5624 C   0  0  0  0  0  0  0  0  0  0  0  0
   -6.9212    2.3960    7.8120 C   0  0  0  0  0  0  0  0  0  0  0  0
   -6.2901    1.5239    6.9346 C   0  0  0  0  0  0  0  0  0  0  0  0
   -5.5841    0.4824    7.4643 O   0  0  0  0  0  0  0  0  0  0  0  0
   -9.4055    7.0840    3.6869 N   0  0  0  0  0  0  0  0  0  0  0  0
  -10.7284    7.7076    3.6980 C   0  0  2  0  0  0  0  0  0  0  0  0
  -11.6530    6.9073    2.7543 C   0  0  0  0  0  0  0  0  0  0  0  0
  -11.4269    5.7380    2.4469 O   0  0  0  0  0  0  0  0  0  0  0  0
  -10.6420    9.1806    3.2445 C   0  0  0  0  0  0  0  0  0  0  0  0
  -11.6671    9.5314    2.3067 O   0  0  0  0  0  0  0  0  0  0  0  0
  -12.7311    7.6194    2.2713 N   0  0  0  0  0  0  0  0  0  0  0  0
  -12.7614    8.1835    0.9206 C   0  0  2  0  0  0  0  0  0  0  0  0
  -11.4653    8.9774    0.5972 C   0  0  0  0  0  0  0  0  0  0  0  0
  -11.1206    9.9596    1.2467 O   0  0  0  0  0  0  0  0  0  0  0  0
  -13.9533    9.1331    0.7415 C   0  0  0  0  0  0  0  0  0  0  0  0
  -13.5799   10.4640    0.0858 C   0  0  0  0  0  0  0  0  0  0  0  0
  -14.6379   11.5279    0.3782 C   0  0  0  0  0  0  0  0  0  0  0  0
  -14.0258   12.8212    0.6131 N   0  0  0  0  0  0  0  0  0  0  0  0
  -14.4214   13.9411   -0.0290 C   0  0  0  0  0  0  0  0  0  0  0  0
  -13.6390   14.8331   -0.5078 N   0  0  0  0  0  0  0  0  0  0  0  0
  -15.7677   14.0231   -0.0910 N   0  0  0  0  0  0  0  0  0  0  0  0
  -12.2210    5.2911   -0.1294 O   0  0  0  0  0  0  0  0  0  0  0  0
  -11.4247    6.1696    0.2046 C   0  0  0  0  0  0  0  0  0  0  0  0
  -10.6576    7.0522   -0.8397 C   0  0  2  0  0  0  0  0  0  0  0  0
   -9.1653    6.6785   -0.7909 C   0  0  0  0  0  0  0  0  0  0  0  0
  -10.7234    8.4850   -0.4614 N   0  0  0  0  0  0  0  0  0  0  0  0
  -11.2402    6.8625   -2.2798 C   0  0  0  0  0  0  0  0  0  0  0  0
  -10.6223    5.7867   -3.2101 C   0  0  0  0  0  0  0  0  0  0  0  0
  -11.4291    4.5007   -3.4361 C   0  0  0  0  0  0  0  0  0  0  0  0
  -11.4545    3.5427   -2.2859 C   0  0  0  0  0  0  0  0  0  0  0  0
  -11.1928    6.2156    1.5437 N   0  0  0  0  0  0  0  0  0  0  0  0
  -10.5816    7.2349    2.3908 C   0  0  2  0  0  0  0  0  0  0  0  0
   -9.1129    6.9377    2.7768 C   0  0  0  0  0  0  0  0  0  0  0  0
   -8.4011    7.7182    3.4092 O   0  0  0  0  0  0  0  0  0  0  0  0
  -11.4069    7.4076    3.6651 C   0  0  0  0  0  0  0  0  0  0  0  0
  -12.7166    6.6136    3.6671 C   0  0  0  0  0  0  0  0  0  0  0  0
  -13.1860    6.3458    2.2537 C   0  0  0  0  0  0  0  0  0  0  0  0
  -13.8707    7.1237    1.5970 O   0  0  0  0  0  0  0  0  0  0  0  0
  -12.7948    5.1443    1.7513 N   0  0  0  0  0  0  0  0  0  0  0  0
   -8.6018    5.7416    2.3262 N   0  0  0  0  0  0  0  0  0  0  0  0
   -8.3312    4.6857    3.3221 C   0  0  2  0  0  0  0  0  0  0  0  0
   -7.0481    3.9881    2.7846 C   0  0  0  0  0  0  0  0  0  0  0  0
   -6.3157    4.5593    1.9740 O   0  0  0  0  0  0  0  0  0  0  0  0
   -9.5468    3.7615    3.4763 C   0  0  0  0  0  0  0  0  0  0  0  0
  -10.3036    3.8717    4.8187 C   0  0  1  0  0  0  0  0  0  0  0  0
   -9.7459    2.9279    5.8831 C   0  0  0  0  0  0  0  0  0  0  0  0
  -10.2330    5.3151    5.3246 C   0  0  0  0  0  0  0  0  0  0  0  0
   -6.7369    2.7644    3.3271 N   0  0  0  0  0  0  0  0  0  0  0  0
   -5.6103    1.9898    2.8015 C   0  0  2  0  0  0  0  0  0  0  0  0
   -6.2457    0.6215    2.4806 C   0  0  0  0  0  0  0  0  0  0  0  0
   -6.4418   -0.1862    3.4078 O   0  0  0  0  0  0  0  0  0  0  0  0
   -4.5128    1.7851    3.8661 C   0  0  0  0  0  0  0  0  0  0  0  0
   -4.9215    1.2771    5.2628 C   0  0  1  0  0  0  0  0  0  0  0  0
   -6.1087    2.0261    5.8543 C   0  0  0  0  0  0  0  0  0  0  0  0
   -5.1437   -0.2341    5.3069 C   0  0  0  0  0  0  0  0  0  0  0  0
   -6.4273   -0.6991   -2.0663 O   0  0  0  0  0  0  0  0  0  0  0  0
   -6.4536   -0.6218   -0.8338 C   0  0  0  0  0  0  0  0  0  0  0  0
   -6.6995    0.7624   -0.1243 C   0  0  2  0  0  0  0  0  0  0  0  0
   -5.5003    1.6732   -0.3910 C   0  0  0  0  0  0  0  0  0  0  0  0
   -6.8711    0.3464    1.3088 N   0  0  0  0  0  0  0  0  0  0  0  0
   -8.0635    1.3351   -0.6054 C   0  0  0  0  0  0  0  0  0  0  0  0
   -8.0382    2.2706   -1.8301 C   0  0  0  0  0  0  0  0  0  0  0  0
   -9.3112    2.2305   -2.6901 C   0  0  0  0  0  0  0  0  0  0  0  0
  -10.5692    2.5873   -1.9602 C   0  0  0  0  0  0  0  0  0  0  0  0
   -6.2614   -1.7203   -0.0325 N   0  0  0  0  0  0  0  0  0  0  0  0
   -6.4978   -1.6740    1.4176 C   0  0  2  0  0  0  0  0  0  0  0  0
   -7.9908   -1.9115    1.6941 C   0  0  0  0  0  0  0  0  0  0  0  0
   -8.4499   -2.0829    2.8168 O   0  0  0  0  0  0  0  0  0  0  0  0
   -6.0012   -0.3842    2.1021 C   0  0  0  0  0  0  0  0  0  0  0  0
   -7.0817    0.4738    2.7279 C   0  0  0  0  0  0  0  0  0  0  0  0
   -7.2972    0.4423    4.1139 C   0  0  0  0  0  0  0  0  0  0  0  0
   -7.8852    1.3040    1.9373 C   0  0  0  0  0  0  0  0  0  0  0  0
   -8.2867    1.2360    4.6933 C   0  0  0  0  0  0  0  0  0  0  0  0
   -8.8683    2.1059    2.5217 C   0  0  0  0  0  0  0  0  0  0  0  0
   -9.0655    2.0721    3.8973 C   0  0  0  0  0  0  0  0  0  0  0  0
   -8.8255   -1.8176    0.6043 N   0  0  0  0  0  0  0  0  0  0  0  0
   -3.4925   13.2803    7.1328 H   0  0  0  0  0  0  0  0  0  0  0  0
  -12.6708   14.5460   -0.3781 H   0  0  0  0  0  0  0  0  0  0  0  0
  1  2  2  0
  1  3  1  0
  4  1  1  0
  5  4  1  0
  6  5  1  0
  5  8  1  1
  6  7  2  0
 13  6  1  0
  8  9  1  0
  9 10  1  0
 10 11  1  0
 11 12  1  0
 14 13  1  0
 15 14  1  0
 14 17  1  6
 15 16  2  0
 22 15  1  0
 17 18  1  0
 18 19  1  0
 19 20  1  0
 20 21  1  0
 23 22  1  0
 24 23  1  0
 23 26  1  6
 24 25  2  0
 33 24  1  0
 26 27  1  0
 27 28  1  0
 28 29  1  0
 29 30  1  0
 30 31  1  0
 30 32  2  0
 34 33  1  0
 35 34  1  0
 34 37  1  1
 35 36  2  0
 45 35  1  0
 37 38  1  0
 38 39  2  0
 38 40  1  0
 39 41  1  0
 40 42  2  0
 41 43  2  0
 42 43  1  0
 43 44  1  0
 46 45  1  0
 47 46  1  0
 46 49  1  6
 47 48  2  0
 51 47  1  0
 49 50  1  0
 52 51  1  0
 53 52  1  0
 52 55  1  1
 53 54  2  0
 66 53  1  0
 55 56  1  0
 56 57  1  0
 57 58  1  0
 58 59  1  0
 59 60  2  0
 59 61  1  0
 63 62  2  0
 63 64  1  0
 71 63  1  0
 64 65  1  6
 64 66  1  0
 64 67  1  0
 67 68  1  0
 68 69  1  0
 69 70  1  0
 70104  2  0
 72 71  1  0
 73 72  1  0
 72 75  1  1
 73 74  2  0
 80 73  1  0
 75 76  1  0
 76 77  1  0
 77 78  2  0
 77 79  1  0
 81 80  1  0
 82 81  1  0
 81 84  1  6
 82 83  2  0
 88 82  1  0
 84 85  1  0
 85 86  1  1
 85 87  1  0
 89 88  1  0
 90 89  1  0
 89 92  1  1
 90 91  2  0
100 90  1  0
 92 93  1  0
 93 94  1  6
 93 95  1  0
 97 96  2  0
 98 97  1  0
 97105  1  0
 98 99  1  1
 98100  1  0
 98101  1  0
101102  1  0
102103  1  0
103104  1  0
105106  1  0
106107  1  0
106109  1  6
107108  2  0
107116  1  0
109110  1  0
110111  2  0
110112  1  0
111113  1  0
112114  2  0
113115  2  0
114115  1  0
 32117  1  0
 60118  1  0
M  CHG  2  12   1  21   1
M  END
$$$$
