
     RDKit          3D

118120  0  0  0  0  0  0  0  0999 V2000
    4.6818    5.4754   14.1372 C   0  0  0  0  0  0  0  0  0  0  0  0
    3.7781    4.8027   14.6191 O   0  0  0  0  0  0  0  0  0  0  0  0
    5.8970    4.8687   13.4952 C   0  0  0  0  0  0  0  0  0  0  0  0
    4.6726    6.8495   14.1503 N   0  0  0  0  0  0  0  0  0  0  0  0
    3.5212    7.6264   13.6861 C   0  0  2  0  0  0  0  0  0  0  0  0
    2.6507    6.6352   12.8862 C   0  0  0  0  0  0  0  0  0  0  0  0
    2.5850    6.6855   11.6552 O   0  0  0  0  0  0  0  0  0  0  0  0
    3.9748    8.8341   12.8426 C   0  0  0  0  0  0  0  0  0  0  0  0
    3.0138   10.0225   13.0043 C   0  0  0  0  0  0  0  0  0  0  0  0
    2.9365   10.6328   14.4020 C   0  0  0  0  0  0  0  0  0  0  0  0
    2.9174    9.5901   15.5111 C   0  0  0  0  0  0  0  0  0  0  0  0
    2.8067   10.2817   16.8162 N   0  0  0  0  0  4  0  0  0  0  0  0
    1.9577    5.6920   13.6220 N   0  0  0  0  0  0  0  0  0  0  0  0
    0.5921    5.3765   13.2076 C   0  0  2  0  0  0  0  0  0  0  0  0
    0.4484    5.7651   11.7229 C   0  0  0  0  0  0  0  0  0  0  0  0
    0.4104    6.9336   11.3462 O   0  0  0  0  0  0  0  0  0  0  0  0
   -0.4772    6.1048   14.0338 C   0  0  0  0  0  0  0  0  0  0  0  0
   -1.6098    5.1656   14.4666 C   0  0  0  0  0  0  0  0  0  0  0  0
   -1.9103    4.0563   13.4449 C   0  0  0  0  0  0  0  0  0  0  0  0
   -3.1046    3.1880   13.8355 C   0  0  0  0  0  0  0  0  0  0  0  0
   -3.2513    3.1912   15.3125 N   0  0  0  0  0  4  0  0  0  0  0  0
    0.3389    4.6792   10.8837 N   0  0  0  0  0  0  0  0  0  0  0  0
    0.1116    4.8242    9.4566 C   0  0  2  0  0  0  0  0  0  0  0  0
   -1.3631    4.5476    9.1044 C   0  0  0  0  0  0  0  0  0  0  0  0
   -1.9296    3.4885    9.3769 O   0  0  0  0  0  0  0  0  0  0  0  0
    1.0306    3.8924    8.6581 C   0  0  0  0  0  0  0  0  0  0  0  0
    1.4225    4.3803    7.2587 C   0  0  0  0  0  0  0  0  0  0  0  0
    1.2692    3.2474    6.2424 C   0  0  0  0  0  0  0  0  0  0  0  0
    1.4495    3.7257    4.8863 N   0  0  0  0  0  0  0  0  0  0  0  0
    2.5867    3.5453    4.1812 C   0  0  0  0  0  0  0  0  0  0  0  0
    2.3409    3.4846    2.8584 N   0  0  0  0  0  0  0  0  0  0  0  0
    3.7576    3.4196    4.6894 N   0  0  0  0  0  0  0  0  0  0  0  0
   -1.9489    5.5737    8.3955 N   0  0  0  0  0  0  0  0  0  0  0  0
   -3.2841    5.4754    7.7982 C   0  0  2  0  0  0  0  0  0  0  0  0
   -3.4891    6.6055    6.7605 C   0  0  0  0  0  0  0  0  0  0  0  0
   -3.6795    7.7812    7.0558 O   0  0  0  0  0  0  0  0  0  0  0  0
   -4.4311    5.3986    8.8250 C   0  0  0  0  0  0  0  0  0  0  0  0
   -4.6945    4.0323    9.4167 C   0  0  0  0  0  0  0  0  0  0  0  0
   -4.8503    3.8759   10.8003 C   0  0  0  0  0  0  0  0  0  0  0  0
   -4.8307    2.9078    8.5869 C   0  0  0  0  0  0  0  0  0  0  0  0
   -5.1373    2.6230   11.3502 C   0  0  0  0  0  0  0  0  0  0  0  0
   -5.1234    1.6593    9.1369 C   0  0  0  0  0  0  0  0  0  0  0  0
   -5.2711    1.5253   10.5113 C   0  0  0  0  0  0  0  0  0  0  0  0
   -5.5656    0.2874   11.0059 O   0  0  0  0  0  0  0  0  0  0  0  0
   -3.5521    6.1707    5.4521 N   0  0  0  0  0  0  0  0  0  0  0  0
   -3.7595    7.0838    4.3285 C   0  0  2  0  0  0  0  0  0  0  0  0
   -5.0761    7.8563    4.5642 C   0  0  0  0  0  0  0  0  0  0  0  0
   -5.5580    8.0092    5.6855 O   0  0  0  0  0  0  0  0  0  0  0  0
   -3.8234    6.3057    2.9969 C   0  0  0  0  0  0  0  0  0  0  0  0
   -4.6456    5.1350    3.0795 O   0  0  0  0  0  0  0  0  0  0  0  0
   -5.6717    8.3342    3.4155 N   0  0  0  0  0  0  0  0  0  0  0  0
   -6.9171    7.7778    2.8836 C   0  0  2  0  0  0  0  0  0  0  0  0
   -7.3090    6.4541    3.5969 C   0  0  0  0  0  0  0  0  0  0  0  0
   -7.6026    6.4146    4.7876 O   0  0  0  0  0  0  0  0  0  0  0  0
   -6.7990    7.4872    1.3815 C   0  0  0  0  0  0  0  0  0  0  0  0
   -5.8182    8.4107    0.6566 C   0  0  0  0  0  0  0  0  0  0  0  0
   -6.2231    9.8746    0.8299 C   0  0  0  0  0  0  0  0  0  0  0  0
   -5.2633   10.7593    0.1986 N   0  0  0  0  0  0  0  0  0  0  0  0
   -5.3857   12.1036    0.2250 C   0  0  0  0  0  0  0  0  0  0  0  0
   -5.1155   12.8887   -0.7486 N   0  0  0  0  0  0  0  0  0  0  0  0
   -5.8158   12.5350    1.4299 N   0  0  0  0  0  0  0  0  0  0  0  0
   -8.9470    2.8572    0.8433 O   0  0  0  0  0  0  0  0  0  0  0  0
   -8.7830    4.0144    1.2324 C   0  0  0  0  0  0  0  0  0  0  0  0
   -8.4397    4.3611    2.7224 C   0  0  2  0  0  0  0  0  0  0  0  0
   -9.6490    5.0800    3.3465 C   0  0  0  0  0  0  0  0  0  0  0  0
   -7.3200    5.3319    2.7881 N   0  0  0  0  0  0  0  0  0  0  0  0
   -8.0674    3.0752    3.5329 C   0  0  0  0  0  0  0  0  0  0  0  0
   -9.1810    2.3153    4.2993 C   0  0  0  0  0  0  0  0  0  0  0  0
   -9.6705    0.9889    3.7020 C   0  0  0  0  0  0  0  0  0  0  0  0
  -10.5378    1.1075    2.4874 C   0  0  0  0  0  0  0  0  0  0  0  0
   -9.0421    4.9518    0.2820 N   0  0  0  0  0  0  0  0  0  0  0  0
   -8.7135    6.3714    0.2007 C   0  0  2  0  0  0  0  0  0  0  0  0
   -9.8872    7.3130    0.5616 C   0  0  0  0  0  0  0  0  0  0  0  0
   -9.7826    8.5373    0.6381 O   0  0  0  0  0  0  0  0  0  0  0  0
   -8.2206    6.7058   -1.2064 C   0  0  0  0  0  0  0  0  0  0  0  0
   -9.1861    6.2829   -2.3176 C   0  0  0  0  0  0  0  0  0  0  0  0
  -10.4674    5.7275   -1.7350 C   0  0  0  0  0  0  0  0  0  0  0  0
  -10.5960    5.3743   -0.5672 O   0  0  0  0  0  0  0  0  0  0  0  0
  -11.4927    5.6337   -2.6233 N   0  0  0  0  0  0  0  0  0  0  0  0
  -11.0849    6.6992    0.8508 N   0  0  0  0  0  0  0  0  0  0  0  0
  -12.1919    6.8526   -0.1141 C   0  0  2  0  0  0  0  0  0  0  0  0
  -13.4602    6.9286    0.7845 C   0  0  0  0  0  0  0  0  0  0  0  0
  -13.3667    7.2172    1.9794 O   0  0  0  0  0  0  0  0  0  0  0  0
  -12.1919    5.6998   -1.1272 C   0  0  0  0  0  0  0  0  0  0  0  0
  -10.7991    5.2172   -1.5899 C   0  0  1  0  0  0  0  0  0  0  0  0
   -9.9185    6.3633   -2.0855 C   0  0  0  0  0  0  0  0  0  0  0  0
  -10.1011    4.4966   -0.4333 C   0  0  0  0  0  0  0  0  0  0  0  0
  -14.6715    6.7521    0.1597 N   0  0  0  0  0  0  0  0  0  0  0  0
  -15.9059    6.6982    0.9463 C   0  0  2  0  0  0  0  0  0  0  0  0
  -16.5536    5.3745    0.4909 C   0  0  0  0  0  0  0  0  0  0  0  0
  -17.1733    5.3450   -0.5888 O   0  0  0  0  0  0  0  0  0  0  0  0
  -16.8584    7.8591    0.5932 C   0  0  0  0  0  0  0  0  0  0  0  0
  -17.7461    8.4529    1.7045 C   0  0  1  0  0  0  0  0  0  0  0  0
  -18.0004    7.4873    2.8549 C   0  0  0  0  0  0  0  0  0  0  0  0
  -17.2402    9.8011    2.2162 C   0  0  0  0  0  0  0  0  0  0  0  0
  -17.4707    2.5375    3.8570 O   0  0  0  0  0  0  0  0  0  0  0  0
  -17.0208    2.6503    2.7121 C   0  0  0  0  0  0  0  0  0  0  0  0
  -15.8673    3.6769    2.4035 C   0  0  2  0  0  0  0  0  0  0  0  0
  -15.8549    4.7476    3.4952 C   0  0  0  0  0  0  0  0  0  0  0  0
  -16.2531    4.1705    1.0382 N   0  0  0  0  0  0  0  0  0  0  0  0
  -14.5307    2.8958    2.2515 C   0  0  0  0  0  0  0  0  0  0  0  0
  -13.6724    2.7216    3.5199 C   0  0  0  0  0  0  0  0  0  0  0  0
  -12.8281    1.4378    3.5477 C   0  0  0  0  0  0  0  0  0  0  0  0
  -11.8643    1.2996    2.4099 C   0  0  0  0  0  0  0  0  0  0  0  0
  -17.5045    1.9054    1.6646 N   0  0  0  0  0  0  0  0  0  0  0  0
  -17.0616    2.1322    0.2815 C   0  0  2  0  0  0  0  0  0  0  0  0
  -17.3457    0.8734   -0.5530 C   0  0  0  0  0  0  0  0  0  0  0  0
  -16.4956    0.3054   -1.2279 O   0  0  0  0  0  0  0  0  0  0  0  0
  -15.5886    2.5695    0.1490 C   0  0  0  0  0  0  0  0  0  0  0  0
  -14.5960    1.7524    0.9504 C   0  0  0  0  0  0  0  0  0  0  0  0
  -15.0459    0.7666    1.8416 C   0  0  0  0  0  0  0  0  0  0  0  0
  -13.2191    1.9703    0.8219 C   0  0  0  0  0  0  0  0  0  0  0  0
  -14.1341    0.0086    2.5757 C   0  0  0  0  0  0  0  0  0  0  0  0
  -12.3079    1.2021    1.5503 C   0  0  0  0  0  0  0  0  0  0  0  0
  -12.7666    0.2223    2.4233 C   0  0  0  0  0  0  0  0  0  0  0  0
  -18.6069    0.3388   -0.4228 N   0  0  0  0  0  0  0  0  0  0  0  0
    3.6900    3.4527    5.7080 H   0  0  0  0  0  0  0  0  0  0  0  0
   -5.0446   12.3536   -1.6118 H   0  0  0  0  0  0  0  0  0  0  0  0
  1  2  2  0
  1  3  1  0
  4  1  1  0
  5  4  1  0
  6  5  1  0
  5  8  1  6
  6  7  2  0
 13  6  1  0
  8  9  1  0
  9 10  1  0
 10 11  1  0
 11 12  1  0
 14 13  1  0
 15 14  1  0
 14 17  1  1
 15 16  2  0
 22 15  1  0
 17 18  1  0
 18 19  1  0
 19 20  1  0
 20 21  1  0
 23 22  1  0
 24 23  1  0
 23 26  1  6
 24 25  2  0
 33 24  1  0
 26 27  1  0
 27 28  1  0
 28 29  1  0
 29 30  1  0
 30 31  1  0
 30 32  2  0
 34 33  1  0
 35 34  1  0
 34 37  1  1
 35 36  2  0
 45 35  1  0
 37 38  1  0
 38 39  2  0
 38 40  1  0
 39 41  1  0
 40 42  2  0
 41 43  2  0
 42 43  1  0
 43 44  1  0
 46 45  1  0
 47 46  1  0
 46 49  1  6
 47 48  2  0
 51 47  1  0
 49 50  1  0
 52 51  1  0
 53 52  1  0
 52 55  1  6
 53 54  2  0
 66 53  1  0
 55 56  1  0
 56 57  1  0
 57 58  1  0
 58 59  1  0
 59 60  2  0
 59 61  1  0
 63 62  2  0
 63 64  1  0
 71 63  1  0
 64 65  1  1
 64 66  1  0
 64 67  1  0
 67 68  1  0
 68 69  1  0
 69 70  1  0
 70104  2  0
 72 71  1  0
 73 72  1  0
 72 75  1  6
 73 74  2  0
 80 73  1  0
 75 76  1  0
 76 77  1  0
 77 78  2  0
 77 79  1  0
 81 80  1  0
 82 81  1  0
 81 84  1  6
 82 83  2  0
 88 82  1  0
 84 85  1  0
 85 86  1  1
 85 87  1  0
 89 88  1  0
 90 89  1  0
 89 92  1  6
 90 91  2  0
100 90  1  0
 92 93  1  0
 93 94  1  1
 93 95  1  0
 97 96  2  0
 98 97  1  0
 97105  1  0
 98 99  1  1
 98100  1  0
 98101  1  0
101102  1  0
102103  1  0
103104  1  0
105106  1  0
106107  1  0
106109  1  1
107108  2  0
107116  1  0
109110  1  0
110111  2  0
110112  1  0
111113  1  0
112114  2  0
113115  2  0
114115  1  0
 32117  1  0
 60118  1  0
M  CHG  2  12   1  21   1
M  END
$$$$
