
     RDKit          3D

118120  0  0  0  0  0  0  0  0999 V2000
    1.7921    5.1765   16.3573 C   0  0  0  0  0  0  0  0  0  0  0  0
    0.7286    5.1283   16.9640 O   0  0  0  0  0  0  0  0  0  0  0  0
    3.0171    4.4268   16.7977 C   0  0  0  0  0  0  0  0  0  0  0  0
    1.9658    5.9319   15.2225 N   0  0  0  0  0  0  0  0  0  0  0  0
    0.8898    6.7486   14.6567 C   0  0  2  0  0  0  0  0  0  0  0  0
    1.3456    7.0962   13.2245 C   0  0  0  0  0  0  0  0  0  0  0  0
    2.4988    6.8758   12.8454 O   0  0  0  0  0  0  0  0  0  0  0  0
    0.6354    8.0001   15.5198 C   0  0  0  0  0  0  0  0  0  0  0  0
    1.1778    9.2679   14.8412 C   0  0  0  0  0  0  0  0  0  0  0  0
    2.6825    9.4982   14.9628 C   0  0  0  0  0  0  0  0  0  0  0  0
    3.1329   10.8335   14.3867 C   0  0  0  0  0  0  0  0  0  0  0  0
    3.6426   10.6145   13.0134 N   0  0  0  0  0  4  0  0  0  0  0  0
    0.3937    7.6599   12.3954 N   0  0  0  0  0  0  0  0  0  0  0  0
   -0.0153    6.9000   11.2158 C   0  0  2  0  0  0  0  0  0  0  0  0
   -1.0964    7.7164   10.4806 C   0  0  0  0  0  0  0  0  0  0  0  0
   -2.2976    7.5504   10.6770 O   0  0  0  0  0  0  0  0  0  0  0  0
   -0.5648    5.5065   11.5512 C   0  0  0  0  0  0  0  0  0  0  0  0
   -1.0365    4.7564   10.2993 C   0  0  0  0  0  0  0  0  0  0  0  0
   -1.2840    3.2577   10.5397 C   0  0  0  0  0  0  0  0  0  0  0  0
   -2.3871    2.9878   11.5609 C   0  0  0  0  0  0  0  0  0  0  0  0
   -1.7728    2.6299   12.8638 N   0  0  0  0  0  4  0  0  0  0  0  0
   -0.5790    8.6143    9.5744 N   0  0  0  0  0  0  0  0  0  0  0  0
   -1.4214    9.3552    8.6521 C   0  0  2  0  0  0  0  0  0  0  0  0
   -2.0957    8.4070    7.6414 C   0  0  0  0  0  0  0  0  0  0  0  0
   -1.4600    7.7108    6.8489 O   0  0  0  0  0  0  0  0  0  0  0  0
   -0.6134   10.4286    7.9136 C   0  0  0  0  0  0  0  0  0  0  0  0
    0.0782   11.4707    8.7998 C   0  0  0  0  0  0  0  0  0  0  0  0
    0.9217   12.4162    7.9429 C   0  0  0  0  0  0  0  0  0  0  0  0
    2.2474   12.5945    8.5008 N   0  0  0  0  0  0  0  0  0  0  0  0
    2.6428   13.7233    9.1272 C   0  0  0  0  0  0  0  0  0  0  0  0
    2.1502   14.8205    8.5211 N   0  0  0  0  0  0  0  0  0  0  0  0
    3.4103   13.7670   10.1538 N   0  0  0  0  0  0  0  0  0  0  0  0
   -3.4715    8.4777    7.6720 N   0  0  0  0  0  0  0  0  0  0  0  0
   -4.3247    7.9654    6.5954 C   0  0  2  0  0  0  0  0  0  0  0  0
   -5.0329    9.1367    5.8725 C   0  0  0  0  0  0  0  0  0  0  0  0
   -5.4962   10.1171    6.4469 O   0  0  0  0  0  0  0  0  0  0  0  0
   -5.3060    6.8624    7.0382 C   0  0  0  0  0  0  0  0  0  0  0  0
   -4.6821    5.6496    7.6911 C   0  0  0  0  0  0  0  0  0  0  0  0
   -5.4571    4.5164    7.9707 C   0  0  0  0  0  0  0  0  0  0  0  0
   -3.3096    5.6232    7.9867 C   0  0  0  0  0  0  0  0  0  0  0  0
   -4.8778    3.3756    8.5342 C   0  0  0  0  0  0  0  0  0  0  0  0
   -2.7320    4.4815    8.5432 C   0  0  0  0  0  0  0  0  0  0  0  0
   -3.5186    3.3697    8.8153 C   0  0  0  0  0  0  0  0  0  0  0  0
   -2.9108    2.2713    9.3518 O   0  0  0  0  0  0  0  0  0  0  0  0
   -5.2067    8.9456    4.5168 N   0  0  0  0  0  0  0  0  0  0  0  0
   -5.8633    9.9330    3.6606 C   0  0  2  0  0  0  0  0  0  0  0  0
   -7.3829    9.6566    3.6739 C   0  0  0  0  0  0  0  0  0  0  0  0
   -8.2078   10.5265    3.9493 O   0  0  0  0  0  0  0  0  0  0  0  0
   -5.3153    9.8570    2.2195 C   0  0  0  0  0  0  0  0  0  0  0  0
   -5.2680    8.5162    1.7160 O   0  0  0  0  0  0  0  0  0  0  0  0
   -7.7297    8.3551    3.3767 N   0  0  0  0  0  0  0  0  0  0  0  0
   -9.1086    7.8694    3.4558 C   0  0  2  0  0  0  0  0  0  0  0  0
   -9.2960    6.8493    4.6129 C   0  0  0  0  0  0  0  0  0  0  0  0
   -8.4160    6.0576    4.9360 O   0  0  0  0  0  0  0  0  0  0  0  0
   -9.5323    7.1843    2.1498 C   0  0  0  0  0  0  0  0  0  0  0  0
   -8.8481    7.7606    0.9087 C   0  0  0  0  0  0  0  0  0  0  0  0
   -9.3792    7.0954   -0.3610 C   0  0  0  0  0  0  0  0  0  0  0  0
   -8.7214    7.6232   -1.5405 N   0  0  0  0  0  0  0  0  0  0  0  0
   -8.5387    6.8919   -2.6606 C   0  0  0  0  0  0  0  0  0  0  0  0
   -8.1652    5.6685   -2.6908 N   0  0  0  0  0  0  0  0  0  0  0  0
   -8.7810    7.6223   -3.7700 N   0  0  0  0  0  0  0  0  0  0  0  0
  -12.0186    3.7299    5.6678 O   0  0  0  0  0  0  0  0  0  0  0  0
  -11.3037    4.5377    5.0731 C   0  0  0  0  0  0  0  0  0  0  0  0
  -11.6806    6.0532    4.9341 C   0  0  2  0  0  0  0  0  0  0  0  0
  -12.0076    6.3406    3.4579 C   0  0  0  0  0  0  0  0  0  0  0  0
  -10.5167    6.9129    5.2604 N   0  0  0  0  0  0  0  0  0  0  0  0
  -12.8846    6.4258    5.8619 C   0  0  0  0  0  0  0  0  0  0  0  0
  -14.3272    6.3427    5.2991 C   0  0  0  0  0  0  0  0  0  0  0  0
  -15.1987    5.1667    5.7607 C   0  0  0  0  0  0  0  0  0  0  0  0
  -14.8535    3.8349    5.1701 C   0  0  0  0  0  0  0  0  0  0  0  0
  -10.2324    3.9691    4.4581 N   0  0  0  0  0  0  0  0  0  0  0  0
   -9.0073    4.5429    3.9106 C   0  0  2  0  0  0  0  0  0  0  0  0
   -9.0179    4.7035    2.3716 C   0  0  0  0  0  0  0  0  0  0  0  0
   -8.1160    5.2485    1.7350 O   0  0  0  0  0  0  0  0  0  0  0  0
   -7.8109    3.6822    4.3139 C   0  0  0  0  0  0  0  0  0  0  0  0
   -8.0764    2.7802    5.5229 C   0  0  0  0  0  0  0  0  0  0  0  0
   -9.2127    3.3241    6.3611 C   0  0  0  0  0  0  0  0  0  0  0  0
  -10.1769    2.6598    6.7275 O   0  0  0  0  0  0  0  0  0  0  0  0
   -9.0938    4.6406    6.6800 N   0  0  0  0  0  0  0  0  0  0  0  0
  -10.1403    4.2377    1.7250 N   0  0  0  0  0  0  0  0  0  0  0  0
  -10.0047    3.0302    0.8862 C   0  0  2  0  0  0  0  0  0  0  0  0
  -10.9720    3.2941   -0.3040 C   0  0  0  0  0  0  0  0  0  0  0  0
  -11.3457    4.4390   -0.5674 O   0  0  0  0  0  0  0  0  0  0  0  0
  -10.3183    1.7670    1.6994 C   0  0  0  0  0  0  0  0  0  0  0  0
  -10.0002    1.8484    3.2091 C   0  0  1  0  0  0  0  0  0  0  0  0
   -9.8400    3.2879    3.6957 C   0  0  0  0  0  0  0  0  0  0  0  0
  -11.1151    1.1598    4.0010 C   0  0  0  0  0  0  0  0  0  0  0  0
  -11.3014    2.2116   -1.0840 N   0  0  0  0  0  0  0  0  0  0  0  0
  -12.2903    2.3487   -2.1558 C   0  0  2  0  0  0  0  0  0  0  0  0
  -13.3030    1.2282   -1.8431 C   0  0  0  0  0  0  0  0  0  0  0  0
  -13.0290    0.0578   -2.1685 O   0  0  0  0  0  0  0  0  0  0  0  0
  -11.6701    2.0786   -3.5422 C   0  0  0  0  0  0  0  0  0  0  0  0
  -10.7994    0.8209   -3.7315 C   0  0  1  0  0  0  0  0  0  0  0  0
   -9.6887    0.6939   -2.6968 C   0  0  0  0  0  0  0  0  0  0  0  0
  -11.6199   -0.4651   -3.8223 C   0  0  0  0  0  0  0  0  0  0  0  0
  -17.6845    2.6025   -0.7829 O   0  0  0  0  0  0  0  0  0  0  0  0
  -16.6644    1.9280   -0.9572 C   0  0  0  0  0  0  0  0  0  0  0  0
  -15.2488    2.5073   -0.5826 C   0  0  2  0  0  0  0  0  0  0  0  0
  -15.0312    3.8122   -1.3496 C   0  0  0  0  0  0  0  0  0  0  0  0
  -14.3404    1.3798   -0.9825 N   0  0  0  0  0  0  0  0  0  0  0  0
  -15.1592    2.6460    0.9642 C   0  0  0  0  0  0  0  0  0  0  0  0
  -15.5773    3.9994    1.5720 C   0  0  0  0  0  0  0  0  0  0  0  0
  -16.1642    3.9082    2.9894 C   0  0  0  0  0  0  0  0  0  0  0  0
  -15.2499    3.2969    4.0056 C   0  0  0  0  0  0  0  0  0  0  0  0
  -16.7120    0.6628   -1.4890 N   0  0  0  0  0  0  0  0  0  0  0  0
  -15.5088   -0.1724   -1.6132 C   0  0  2  0  0  0  0  0  0  0  0  0
  -15.0286   -0.1532   -3.0729 C   0  0  0  0  0  0  0  0  0  0  0  0
  -14.8408    0.8776   -3.7077 O   0  0  0  0  0  0  0  0  0  0  0  0
  -15.6816   -1.6168   -1.1010 C   0  0  0  0  0  0  0  0  0  0  0  0
  -15.9257   -2.6591   -2.1731 C   0  0  0  0  0  0  0  0  0  0  0  0
  -15.9727   -2.2871   -3.5251 C   0  0  0  0  0  0  0  0  0  0  0  0
  -16.1149   -4.0043   -1.8349 C   0  0  0  0  0  0  0  0  0  0  0  0
  -16.1908   -3.2454   -4.5145 C   0  0  0  0  0  0  0  0  0  0  0  0
  -16.3223   -4.9636   -2.8288 C   0  0  0  0  0  0  0  0  0  0  0  0
  -16.3577   -4.5831   -4.1654 C   0  0  0  0  0  0  0  0  0  0  0  0
  -14.7115   -1.3767   -3.6168 N   0  0  0  0  0  0  0  0  0  0  0  0
    3.5048   12.8287   10.5462 H   0  0  0  0  0  0  0  0  0  0  0  0
   -8.7913    5.1041   -2.1198 H   0  0  0  0  0  0  0  0  0  0  0  0
  1  2  2  0
  1  3  1  0
  4  1  1  0
  5  4  1  0
  6  5  1  0
  5  8  1  1
  6  7  2  0
 13  6  1  0
  8  9  1  0
  9 10  1  0
 10 11  1  0
 11 12  1  0
 14 13  1  0
 15 14  1  0
 14 17  1  1
 15 16  2  0
 22 15  1  0
 17 18  1  0
 18 19  1  0
 19 20  1  0
 20 21  1  0
 23 22  1  0
 24 23  1  0
 23 26  1  6
 24 25  2  0
 33 24  1  0
 26 27  1  0
 27 28  1  0
 28 29  1  0
 29 30  1  0
 30 31  1  0
 30 32  2  0
 34 33  1  0
 35 34  1  0
 34 37  1  1
 35 36  2  0
 45 35  1  0
 37 38  1  0
 38 39  2  0
 38 40  1  0
 39 41  1  0
 40 42  2  0
 41 43  2  0
 42 43  1  0
 43 44  1  0
 46 45  1  0
 47 46  1  0
 46 49  1  6
 47 48  2  0
 51 47  1  0
 49 50  1  0
 52 51  1  0
 53 52  1  0
 52 55  1  6
 53 54  2  0
 66 53  1  0
 55 56  1  0
 56 57  1  0
 57 58  1  0
 58 59  1  0
 59 60  2  0
 59 61  1  0
 63 62  2  0
 63 64  1  0
 71 63  1  0
 64 65  1  6
 64 66  1  0
 64 67  1  0
 67 68  1  0
 68 69  1  0
 69 70  1  0
 70104  2  0
 72 71  1  0
 73 72  1  0
 72 75  1  6
 73 74  2  0
 80 73  1  0
 75 76  1  0
 76 77  1  0
 77 78  2  0
 77 79  1  0
 81 80  1  0
 82 81  1  0
 81 84  1  1
 82 83  2  0
 88 82  1  0
 84 85  1  0
 85 86  1  1
 85 87  1  0
 89 88  1  0
 90 89  1  0
 89 92  1  6
 90 91  2  0
100 90  1  0
 92 93  1  0
 93 94  1  1
 93 95  1  0
 97 96  2  0
 98 97  1  0
 97105  1  0
 98 99  1  6
 98100  1  0
 98101  1  0
101102  1  0
102103  1  0
103104  1  0
105106  1  0
106107  1  0
106109  1  6
107108  2  0
107116  1  0
109110  1  0
110111  2  0
110112  1  0
111113  1  0
112114  2  0
113115  2  0
114115  1  0
 32117  1  0
 60118  1  0
M  CHG  2  12   1  21   1
M  END
$$$$
