
     RDKit          3D

118120  0  0  0  0  0  0  0  0999 V2000
    2.0827    2.1318   12.4228 C   0  0  0  0  0  0  0  0  0  0  0  0
    2.6799    1.0717   12.2783 O   0  0  0  0  0  0  0  0  0  0  0  0
    2.4319    3.3758   11.6563 C   0  0  0  0  0  0  0  0  0  0  0  0
    1.0442    2.2841   13.3098 N   0  0  0  0  0  0  0  0  0  0  0  0
    0.3581    3.5646   13.4953 C   0  0  2  0  0  0  0  0  0  0  0  0
    0.0272    4.0646   12.0739 C   0  0  0  0  0  0  0  0  0  0  0  0
    0.8669    4.6525   11.3873 O   0  0  0  0  0  0  0  0  0  0  0  0
    1.2397    4.5535   14.2832 C   0  0  0  0  0  0  0  0  0  0  0  0
    0.5329    5.9048   14.4733 C   0  0  0  0  0  0  0  0  0  0  0  0
    1.2880    6.9423   15.3011 C   0  0  0  0  0  0  0  0  0  0  0  0
    1.3956    6.5713   16.7737 C   0  0  0  0  0  0  0  0  0  0  0  0
    2.0296    7.6928   17.5045 N   0  0  0  0  0  4  0  0  0  0  0  0
   -1.2529    3.8139   11.6156 N   0  0  0  0  0  0  0  0  0  0  0  0
   -1.5827    4.2374   10.2562 C   0  0  2  0  0  0  0  0  0  0  0  0
   -2.3653    5.5618   10.3519 C   0  0  0  0  0  0  0  0  0  0  0  0
   -3.2432    5.7518   11.1899 O   0  0  0  0  0  0  0  0  0  0  0  0
   -2.4150    3.2048    9.4833 C   0  0  0  0  0  0  0  0  0  0  0  0
   -1.5334    2.1878    8.7480 C   0  0  0  0  0  0  0  0  0  0  0  0
   -1.0538    1.0324    9.6425 C   0  0  0  0  0  0  0  0  0  0  0  0
   -0.2990   -0.0493    8.8725 C   0  0  0  0  0  0  0  0  0  0  0  0
    0.1319   -1.1121    9.8147 N   0  0  0  0  0  4  0  0  0  0  0  0
   -2.0007    6.4806    9.3937 N   0  0  0  0  0  0  0  0  0  0  0  0
   -2.9290    7.4722    8.8796 C   0  0  2  0  0  0  0  0  0  0  0  0
   -3.1196    7.3098    7.3589 C   0  0  0  0  0  0  0  0  0  0  0  0
   -2.1787    7.2856    6.5646 O   0  0  0  0  0  0  0  0  0  0  0  0
   -2.4498    8.8917    9.2047 C   0  0  0  0  0  0  0  0  0  0  0  0
   -1.2703    8.9912   10.1787 C   0  0  0  0  0  0  0  0  0  0  0  0
   -0.0060    9.4237    9.4344 C   0  0  0  0  0  0  0  0  0  0  0  0
   -0.2823    9.6994    8.0387 N   0  0  0  0  0  0  0  0  0  0  0  0
    0.6619   10.1004    7.1608 C   0  0  0  0  0  0  0  0  0  0  0  0
    1.7757   10.5177    7.7929 N   0  0  0  0  0  0  0  0  0  0  0  0
    0.5253   10.1141    5.8856 N   0  0  0  0  0  0  0  0  0  0  0  0
   -4.4448    7.2688    6.9838 N   0  0  0  0  0  0  0  0  0  0  0  0
   -4.8808    7.2093    5.5853 C   0  0  2  0  0  0  0  0  0  0  0  0
   -5.7941    8.4157    5.2592 C   0  0  0  0  0  0  0  0  0  0  0  0
   -6.7718    8.7359    5.9279 O   0  0  0  0  0  0  0  0  0  0  0  0
   -5.5095    5.8626    5.1767 C   0  0  0  0  0  0  0  0  0  0  0  0
   -5.7999    5.6922    3.7026 C   0  0  0  0  0  0  0  0  0  0  0  0
   -7.1210    5.5974    3.2456 C   0  0  0  0  0  0  0  0  0  0  0  0
   -4.7543    5.6706    2.7655 C   0  0  0  0  0  0  0  0  0  0  0  0
   -7.3986    5.4836    1.8801 C   0  0  0  0  0  0  0  0  0  0  0  0
   -5.0336    5.5632    1.4026 C   0  0  0  0  0  0  0  0  0  0  0  0
   -6.3501    5.4675    0.9708 C   0  0  0  0  0  0  0  0  0  0  0  0
   -6.5781    5.3728   -0.3719 O   0  0  0  0  0  0  0  0  0  0  0  0
   -5.4882    9.0561    4.0754 N   0  0  0  0  0  0  0  0  0  0  0  0
   -6.3325   10.1070    3.5082 C   0  0  2  0  0  0  0  0  0  0  0  0
   -7.4502    9.4395    2.6768 C   0  0  0  0  0  0  0  0  0  0  0  0
   -7.8041    8.2763    2.8635 O   0  0  0  0  0  0  0  0  0  0  0  0
   -5.4996   11.0590    2.6234 C   0  0  0  0  0  0  0  0  0  0  0  0
   -6.2869   11.7109    1.6192 O   0  0  0  0  0  0  0  0  0  0  0  0
   -7.9947   10.2461    1.6994 N   0  0  0  0  0  0  0  0  0  0  0  0
   -9.1502    9.8409    0.8969 C   0  0  2  0  0  0  0  0  0  0  0  0
   -8.7343    9.4062   -0.5359 C   0  0  0  0  0  0  0  0  0  0  0  0
   -8.0183   10.1024   -1.2488 O   0  0  0  0  0  0  0  0  0  0  0  0
  -10.1650   10.9845    0.7668 C   0  0  0  0  0  0  0  0  0  0  0  0
  -11.3844   10.6244   -0.0841 C   0  0  0  0  0  0  0  0  0  0  0  0
  -12.3871   11.7779   -0.1100 C   0  0  0  0  0  0  0  0  0  0  0  0
  -13.6748   11.3611    0.4100 N   0  0  0  0  0  0  0  0  0  0  0  0
  -14.5252   12.2154    1.0184 C   0  0  0  0  0  0  0  0  0  0  0  0
  -14.2889   13.4511    1.2519 N   0  0  0  0  0  0  0  0  0  0  0  0
  -15.6702   11.5970    1.3781 N   0  0  0  0  0  0  0  0  0  0  0  0
  -11.4089    7.6259    1.7891 O   0  0  0  0  0  0  0  0  0  0  0  0
  -10.4885    7.2985    1.0387 C   0  0  0  0  0  0  0  0  0  0  0  0
  -10.5097    7.5978   -0.5002 C   0  0  2  0  0  0  0  0  0  0  0  0
  -10.6471    6.2632   -1.2543 C   0  0  0  0  0  0  0  0  0  0  0  0
   -9.2144    8.1729   -0.9383 N   0  0  0  0  0  0  0  0  0  0  0  0
  -11.6715    8.5783   -0.8716 C   0  0  0  0  0  0  0  0  0  0  0  0
  -13.0476    7.9972   -1.2881 C   0  0  0  0  0  0  0  0  0  0  0  0
  -14.1909    8.0889   -0.2682 C   0  0  0  0  0  0  0  0  0  0  0  0
  -14.1021    7.1438    0.8895 C   0  0  0  0  0  0  0  0  0  0  0  0
   -9.5238    6.5593    1.6485 N   0  0  0  0  0  0  0  0  0  0  0  0
   -8.1628    6.2161    1.2486 C   0  0  2  0  0  0  0  0  0  0  0  0
   -8.0156    4.7889    0.6693 C   0  0  0  0  0  0  0  0  0  0  0  0
   -6.9681    4.3480    0.1959 O   0  0  0  0  0  0  0  0  0  0  0  0
   -7.2216    6.3692    2.4426 C   0  0  0  0  0  0  0  0  0  0  0  0
   -6.6408    7.7780    2.5967 C   0  0  0  0  0  0  0  0  0  0  0  0
   -6.7221    8.5395    1.2917 C   0  0  0  0  0  0  0  0  0  0  0  0
   -5.7516    9.0143    0.7103 O   0  0  0  0  0  0  0  0  0  0  0  0
   -7.9823    8.6751    0.7993 N   0  0  0  0  0  0  0  0  0  0  0  0
   -9.1582    4.0212    0.6611 N   0  0  0  0  0  0  0  0  0  0  0  0
   -9.2262    2.8716    1.5851 C   0  0  2  0  0  0  0  0  0  0  0  0
  -10.0139    1.7959    0.7824 C   0  0  0  0  0  0  0  0  0  0  0  0
  -10.1038    1.8693   -0.4449 O   0  0  0  0  0  0  0  0  0  0  0  0
   -9.8742    3.2819    2.9144 C   0  0  0  0  0  0  0  0  0  0  0  0
   -9.2597    2.6462    4.1814 C   0  0  1  0  0  0  0  0  0  0  0  0
  -10.0121    3.0340    5.4534 C   0  0  0  0  0  0  0  0  0  0  0  0
   -9.2533    1.1223    4.0330 C   0  0  0  0  0  0  0  0  0  0  0  0
  -10.5110    0.7327    1.4974 N   0  0  0  0  0  0  0  0  0  0  0  0
  -11.3572   -0.2664    0.8406 C   0  0  2  0  0  0  0  0  0  0  0  0
  -12.6136   -0.3030    1.7345 C   0  0  0  0  0  0  0  0  0  0  0  0
  -12.5796   -0.9486    2.7987 O   0  0  0  0  0  0  0  0  0  0  0  0
  -10.7038   -1.6638    0.8527 C   0  0  0  0  0  0  0  0  0  0  0  0
   -9.8945   -2.0922    2.0925 C   0  0  1  0  0  0  0  0  0  0  0  0
   -8.5338   -1.4142    2.1893 C   0  0  0  0  0  0  0  0  0  0  0  0
  -10.6782   -1.9472    3.3963 C   0  0  0  0  0  0  0  0  0  0  0  0
  -16.6249    0.9624   -0.3385 O   0  0  0  0  0  0  0  0  0  0  0  0
  -15.7973    0.7044    0.5415 C   0  0  0  0  0  0  0  0  0  0  0  0
  -14.3231    1.2481    0.4371 C   0  0  2  0  0  0  0  0  0  0  0  0
  -13.7628    0.8929   -0.9407 C   0  0  0  0  0  0  0  0  0  0  0  0
  -13.6569    0.5515    1.5893 N   0  0  0  0  0  0  0  0  0  0  0  0
  -14.3280    2.7702    0.7582 C   0  0  0  0  0  0  0  0  0  0  0  0
  -14.4842    3.7372   -0.4319 C   0  0  0  0  0  0  0  0  0  0  0  0
  -15.1872    5.0605   -0.0909 C   0  0  0  0  0  0  0  0  0  0  0  0
  -14.5138    5.8687    0.9748 C   0  0  0  0  0  0  0  0  0  0  0  0
  -16.1134   -0.0673    1.6326 N   0  0  0  0  0  0  0  0  0  0  0  0
  -15.1110   -0.9037    2.3081 C   0  0  2  0  0  0  0  0  0  0  0  0
  -15.7683   -1.6171    3.5000 C   0  0  0  0  0  0  0  0  0  0  0  0
  -16.3187   -2.7080    3.4133 O   0  0  0  0  0  0  0  0  0  0  0  0
  -13.8393   -0.1468    2.7422 C   0  0  0  0  0  0  0  0  0  0  0  0
  -14.0007    1.3509    2.9037 C   0  0  0  0  0  0  0  0  0  0  0  0
  -13.1181    2.0745    3.7197 C   0  0  0  0  0  0  0  0  0  0  0  0
  -15.0327    2.0351    2.2505 C   0  0  0  0  0  0  0  0  0  0  0  0
  -13.2605    3.4542    3.8651 C   0  0  0  0  0  0  0  0  0  0  0  0
  -15.1663    3.4185    2.3893 C   0  0  0  0  0  0  0  0  0  0  0  0
  -14.2795    4.1250    3.1938 C   0  0  0  0  0  0  0  0  0  0  0  0
  -15.6162   -1.0062    4.7236 N   0  0  0  0  0  0  0  0  0  0  0  0
   -0.4331    9.8555    5.6449 H   0  0  0  0  0  0  0  0  0  0  0  0
  -14.4166   13.9923    0.3990 H   0  0  0  0  0  0  0  0  0  0  0  0
  1  2  2  0
  1  3  1  0
  4  1  1  0
  5  4  1  0
  6  5  1  0
  5  8  1  6
  6  7  2  0
 13  6  1  0
  8  9  1  0
  9 10  1  0
 10 11  1  0
 11 12  1  0
 14 13  1  0
 15 14  1  0
 14 17  1  1
 15 16  2  0
 22 15  1  0
 17 18  1  0
 18 19  1  0
 19 20  1  0
 20 21  1  0
 23 22  1  0
 24 23  1  0
 23 26  1  6
 24 25  2  0
 33 24  1  0
 26 27  1  0
 27 28  1  0
 28 29  1  0
 29 30  1  0
 30 31  1  0
 30 32  2  0
 34 33  1  0
 35 34  1  0
 34 37  1  1
 35 36  2  0
 45 35  1  0
 37 38  1  0
 38 39  2  0
 38 40  1  0
 39 41  1  0
 40 42  2  0
 41 43  2  0
 42 43  1  0
 43 44  1  0
 46 45  1  0
 47 46  1  0
 46 49  1  6
 47 48  2  0
 51 47  1  0
 49 50  1  0
 52 51  1  0
 53 52  1  0
 52 55  1  6
 53 54  2  0
 66 53  1  0
 55 56  1  0
 56 57  1  0
 57 58  1  0
 58 59  1  0
 59 60  2  0
 59 61  1  0
 63 62  2  0
 63 64  1  0
 71 63  1  0
 64 65  1  6
 64 66  1  0
 64 67  1  0
 67 68  1  0
 68 69  1  0
 69 70  1  0
 70104  2  0
 72 71  1  0
 73 72  1  0
 72 75  1  1
 73 74  2  0
 80 73  1  0
 75 76  1  0
 76 77  1  0
 77 78  2  0
 77 79  1  0
 81 80  1  0
 82 81  1  0
 81 84  1  1
 82 83  2  0
 88 82  1  0
 84 85  1  0
 85 86  1  1
 85 87  1  0
 89 88  1  0
 90 89  1  0
 89 92  1  1
 90 91  2  0
100 90  1  0
 92 93  1  0
 93 94  1  1
 93 95  1  0
 97 96  2  0
 98 97  1  0
 97105  1  0
 98 99  1  6
 98100  1  0
 98101  1  0
101102  1  0
102103  1  0
103104  1  0
105106  1  0
106107  1  0
106109  1  1
107108  2  0
107116  1  0
109110  1  0
110111  2  0
110112  1  0
111113  1  0
112114  2  0
113115  2  0
114115  1  0
 32117  1  0
 60118  1  0
M  CHG  2  12   1  21   1
M  END
$$$$
