
     RDKit          3D

118120  0  0  0  0  0  0  0  0999 V2000
   -2.3995    5.7851   11.1329 C   0  0  0  0  0  0  0  0  0  0  0  0
   -2.5797    5.7438   12.3441 O   0  0  0  0  0  0  0  0  0  0  0  0
   -1.4116    6.7141   10.4863 C   0  0  0  0  0  0  0  0  0  0  0  0
   -3.0943    4.9921   10.2514 N   0  0  0  0  0  0  0  0  0  0  0  0
   -2.8106    4.9888    8.8146 C   0  0  2  0  0  0  0  0  0  0  0  0
   -3.7519    6.0487    8.2061 C   0  0  0  0  0  0  0  0  0  0  0  0
   -4.9198    6.1659    8.5863 O   0  0  0  0  0  0  0  0  0  0  0  0
   -3.0269    3.5861    8.2132 C   0  0  0  0  0  0  0  0  0  0  0  0
   -1.9141    2.6161    8.6404 C   0  0  0  0  0  0  0  0  0  0  0  0
   -0.4846    3.1304    8.4854 C   0  0  0  0  0  0  0  0  0  0  0  0
    0.2595    2.4909    7.3214 C   0  0  0  0  0  0  0  0  0  0  0  0
    1.6608    2.9707    7.3279 N   0  0  0  0  0  4  0  0  0  0  0  0
   -3.2143    6.8565    7.2213 N   0  0  0  0  0  0  0  0  0  0  0  0
   -4.0980    7.8317    6.5853 C   0  0  2  0  0  0  0  0  0  0  0  0
   -4.0783    7.5658    5.0672 C   0  0  0  0  0  0  0  0  0  0  0  0
   -4.7004    8.2593    4.2666 O   0  0  0  0  0  0  0  0  0  0  0  0
   -3.6918    9.2870    6.8561 C   0  0  0  0  0  0  0  0  0  0  0  0
   -4.5536   10.2819    6.0688 C   0  0  0  0  0  0  0  0  0  0  0  0
   -3.8461   11.6184    5.7893 C   0  0  0  0  0  0  0  0  0  0  0  0
   -3.7428   12.5124    7.0233 C   0  0  0  0  0  0  0  0  0  0  0  0
   -2.9549   13.7244    6.6867 N   0  0  0  0  0  4  0  0  0  0  0  0
   -3.3256    6.4679    4.7159 N   0  0  0  0  0  0  0  0  0  0  0  0
   -3.3651    5.8977    3.3808 C   0  0  2  0  0  0  0  0  0  0  0  0
   -4.8137    5.5790    2.9623 C   0  0  0  0  0  0  0  0  0  0  0  0
   -5.5590    6.4102    2.4422 O   0  0  0  0  0  0  0  0  0  0  0  0
   -2.4999    4.6348    3.2986 C   0  0  0  0  0  0  0  0  0  0  0  0
   -2.9543    3.5796    2.2838 C   0  0  0  0  0  0  0  0  0  0  0  0
   -2.1153    2.3091    2.4316 C   0  0  0  0  0  0  0  0  0  0  0  0
   -2.9484    1.1533    2.6965 N   0  0  0  0  0  0  0  0  0  0  0  0
   -2.7876   -0.0349    2.0756 C   0  0  0  0  0  0  0  0  0  0  0  0
   -3.2659   -1.0487    2.8222 N   0  0  0  0  0  0  0  0  0  0  0  0
   -2.2299   -0.2003    0.9326 N   0  0  0  0  0  0  0  0  0  0  0  0
   -5.2017    4.2998    3.2967 N   0  0  0  0  0  0  0  0  0  0  0  0
   -6.4967    3.7289    2.9143 C   0  0  2  0  0  0  0  0  0  0  0  0
   -7.5516    4.8518    2.7643 C   0  0  0  0  0  0  0  0  0  0  0  0
   -7.9532    5.2754    1.6850 O   0  0  0  0  0  0  0  0  0  0  0  0
   -6.9763    2.5836    3.8275 C   0  0  0  0  0  0  0  0  0  0  0  0
   -5.9526    1.5139    4.1343 C   0  0  0  0  0  0  0  0  0  0  0  0
   -4.9678    1.1832    3.1943 C   0  0  0  0  0  0  0  0  0  0  0  0
   -5.9455    0.8673    5.3808 C   0  0  0  0  0  0  0  0  0  0  0  0
   -3.9918    0.2263    3.4880 C   0  0  0  0  0  0  0  0  0  0  0  0
   -4.9670   -0.0829    5.6746 C   0  0  0  0  0  0  0  0  0  0  0  0
   -4.0013   -0.3983    4.7275 C   0  0  0  0  0  0  0  0  0  0  0  0
   -3.0579   -1.3273    5.0601 O   0  0  0  0  0  0  0  0  0  0  0  0
   -7.9377    5.4313    3.9559 N   0  0  0  0  0  0  0  0  0  0  0  0
   -9.0592    6.3653    4.0498 C   0  0  2  0  0  0  0  0  0  0  0  0
   -8.5189    7.7983    3.8484 C   0  0  0  0  0  0  0  0  0  0  0  0
   -7.7157    8.3141    4.6242 O   0  0  0  0  0  0  0  0  0  0  0  0
   -9.7596    6.2422    5.4199 C   0  0  0  0  0  0  0  0  0  0  0  0
   -8.8323    6.1377    6.5074 O   0  0  0  0  0  0  0  0  0  0  0  0
   -9.0297    8.4521    2.7465 N   0  0  0  0  0  0  0  0  0  0  0  0
   -8.6290    9.8120    2.3813 C   0  0  2  0  0  0  0  0  0  0  0  0
   -9.8091   10.8152    2.5074 C   0  0  0  0  0  0  0  0  0  0  0  0
   -9.8179   11.7131    3.3436 O   0  0  0  0  0  0  0  0  0  0  0  0
   -8.1125    9.8705    0.9376 C   0  0  0  0  0  0  0  0  0  0  0  0
   -6.6519   10.3125    0.8295 C   0  0  0  0  0  0  0  0  0  0  0  0
   -6.3809   10.9613   -0.5278 C   0  0  0  0  0  0  0  0  0  0  0  0
   -5.6301   10.0705   -1.3910 N   0  0  0  0  0  0  0  0  0  0  0  0
   -4.7731   10.5203   -2.3324 C   0  0  0  0  0  0  0  0  0  0  0  0
   -4.6789   11.7343   -2.7253 N   0  0  0  0  0  0  0  0  0  0  0  0
   -4.0249    9.5160   -2.8367 N   0  0  0  0  0  0  0  0  0  0  0  0
  -13.3358    8.1365    1.8712 O   0  0  0  0  0  0  0  0  0  0  0  0
  -12.2600    8.6502    2.1812 C   0  0  0  0  0  0  0  0  0  0  0  0
  -11.3052    9.3069    1.1253 C   0  0  2  0  0  0  0  0  0  0  0  0
  -10.0407    8.4377    1.0046 C   0  0  0  0  0  0  0  0  0  0  0  0
  -10.8356   10.6320    1.5984 N   0  0  0  0  0  0  0  0  0  0  0  0
  -12.0152    9.4660   -0.2603 C   0  0  0  0  0  0  0  0  0  0  0  0
  -11.8817    8.3350   -1.3129 C   0  0  0  0  0  0  0  0  0  0  0  0
  -13.1035    7.4343   -1.5404 C   0  0  0  0  0  0  0  0  0  0  0  0
  -13.3855    6.4409   -0.4564 C   0  0  0  0  0  0  0  0  0  0  0  0
  -11.9350    8.4876    3.4916 N   0  0  0  0  0  0  0  0  0  0  0  0
  -10.9469    9.1488    4.3380 C   0  0  2  0  0  0  0  0  0  0  0  0
   -9.6542    8.3276    4.5594 C   0  0  0  0  0  0  0  0  0  0  0  0
   -8.6712    8.7511    5.1678 O   0  0  0  0  0  0  0  0  0  0  0  0
  -11.5683    9.4761    5.6950 C   0  0  0  0  0  0  0  0  0  0  0  0
  -13.0699    9.1849    5.7750 C   0  0  0  0  0  0  0  0  0  0  0  0
  -13.5737    8.5943    4.4761 C   0  0  0  0  0  0  0  0  0  0  0  0
  -13.9562    7.4355    4.3496 O   0  0  0  0  0  0  0  0  0  0  0  0
  -13.5623    9.4581    3.4260 N   0  0  0  0  0  0  0  0  0  0  0  0
   -9.6298    7.0763    3.9862 N   0  0  0  0  0  0  0  0  0  0  0  0
   -9.6806    5.9037    4.8818 C   0  0  2  0  0  0  0  0  0  0  0  0
   -8.7660    4.8592    4.1787 C   0  0  0  0  0  0  0  0  0  0  0  0
   -7.9371    5.2153    3.3385 O   0  0  0  0  0  0  0  0  0  0  0  0
  -11.1301    5.4465    5.0947 C   0  0  0  0  0  0  0  0  0  0  0  0
  -11.9207    6.2148    6.1771 C   0  0  1  0  0  0  0  0  0  0  0  0
  -11.3588    5.9912    7.5803 C   0  0  0  0  0  0  0  0  0  0  0  0
  -11.9065    7.7106    5.8506 C   0  0  0  0  0  0  0  0  0  0  0  0
   -8.8693    3.5583    4.6094 N   0  0  0  0  0  0  0  0  0  0  0  0
   -8.1271    2.4949    3.9284 C   0  0  2  0  0  0  0  0  0  0  0  0
   -9.2245    1.4669    3.5847 C   0  0  0  0  0  0  0  0  0  0  0  0
   -9.6281    0.6938    4.4734 O   0  0  0  0  0  0  0  0  0  0  0  0
   -7.1015    1.8248    4.8659 C   0  0  0  0  0  0  0  0  0  0  0  0
   -5.9150    2.6610    5.3841 C   0  0  1  0  0  0  0  0  0  0  0  0
   -5.4690    3.7446    4.4107 C   0  0  0  0  0  0  0  0  0  0  0  0
   -6.1542    3.2361    6.7796 C   0  0  0  0  0  0  0  0  0  0  0  0
   -9.9527    0.6684   -0.9939 O   0  0  0  0  0  0  0  0  0  0  0  0
  -10.0853    0.6882    0.2341 C   0  0  0  0  0  0  0  0  0  0  0  0
   -9.7781    1.9992    1.0506 C   0  0  2  0  0  0  0  0  0  0  0  0
   -8.3563    2.4601    0.7268 C   0  0  0  0  0  0  0  0  0  0  0  0
   -9.9859    1.5359    2.4643 N   0  0  0  0  0  0  0  0  0  0  0  0
  -10.8825    3.0504    0.7421 C   0  0  0  0  0  0  0  0  0  0  0  0
  -10.6138    4.0298   -0.4174 C   0  0  0  0  0  0  0  0  0  0  0  0
  -11.8754    4.5128   -1.1500 C   0  0  0  0  0  0  0  0  0  0  0  0
  -12.8733    5.2124   -0.2799 C   0  0  0  0  0  0  0  0  0  0  0  0
  -10.4903   -0.4184    0.9393 N   0  0  0  0  0  0  0  0  0  0  0  0
  -10.6009   -0.4068    2.4050 C   0  0  2  0  0  0  0  0  0  0  0  0
  -11.3264   -1.6803    2.8672 C   0  0  0  0  0  0  0  0  0  0  0  0
  -11.6192   -1.9036    4.0355 O   0  0  0  0  0  0  0  0  0  0  0  0
  -11.2693    0.8575    2.9824 C   0  0  0  0  0  0  0  0  0  0  0  0
  -11.4478    2.0000    2.0036 C   0  0  0  0  0  0  0  0  0  0  0  0
  -10.9452    1.8989    0.6976 C   0  0  0  0  0  0  0  0  0  0  0  0
  -12.1080    3.1740    2.3852 C   0  0  0  0  0  0  0  0  0  0  0  0
  -11.1138    2.9465   -0.2074 C   0  0  0  0  0  0  0  0  0  0  0  0
  -12.2849    4.2172    1.4733 C   0  0  0  0  0  0  0  0  0  0  0  0
  -11.7899    4.1007    0.1795 C   0  0  0  0  0  0  0  0  0  0  0  0
  -11.7352   -2.5343    1.8686 N   0  0  0  0  0  0  0  0  0  0  0  0
   -1.2153   -0.2121    1.0493 H   0  0  0  0  0  0  0  0  0  0  0  0
   -5.1774   12.3439   -2.0800 H   0  0  0  0  0  0  0  0  0  0  0  0
  1  2  2  0
  1  3  1  0
  4  1  1  0
  5  4  1  0
  6  5  1  0
  5  8  1  6
  6  7  2  0
 13  6  1  0
  8  9  1  0
  9 10  1  0
 10 11  1  0
 11 12  1  0
 14 13  1  0
 15 14  1  0
 14 17  1  6
 15 16  2  0
 22 15  1  0
 17 18  1  0
 18 19  1  0
 19 20  1  0
 20 21  1  0
 23 22  1  0
 24 23  1  0
 23 26  1  1
 24 25  2  0
 33 24  1  0
 26 27  1  0
 27 28  1  0
 28 29  1  0
 29 30  1  0
 30 31  1  0
 30 32  2  0
 34 33  1  0
 35 34  1  0
 34 37  1  1
 35 36  2  0
 45 35  1  0
 37 38  1  0
 38 39  2  0
 38 40  1  0
 39 41  1  0
 40 42  2  0
 41 43  2  0
 42 43  1  0
 43 44  1  0
 46 45  1  0
 47 46  1  0
 46 49  1  1
 47 48  2  0
 51 47  1  0
 49 50  1  0
 52 51  1  0
 53 52  1  0
 52 55  1  6
 53 54  2  0
 66 53  1  0
 55 56  1  0
 56 57  1  0
 57 58  1  0
 58 59  1  0
 59 60  2  0
 59 61  1  0
 63 62  2  0
 63 64  1  0
 71 63  1  0
 64 65  1  6
 64 66  1  0
 64 67  1  0
 67 68  1  0
 68 69  1  0
 69 70  1  0
 70104  2  0
 72 71  1  0
 73 72  1  0
 72 75  1  1
 73 74  2  0
 80 73  1  0
 75 76  1  0
 76 77  1  0
 77 78  2  0
 77 79  1  0
 81 80  1  0
 82 81  1  0
 81 84  1  6
 82 83  2  0
 88 82  1  0
 84 85  1  0
 85 86  1  1
 85 87  1  0
 89 88  1  0
 90 89  1  0
 89 92  1  1
 90 91  2  0
100 90  1  0
 92 93  1  0
 93 94  1  6
 93 95  1  0
 97 96  2  0
 98 97  1  0
 97105  1  0
 98 99  1  1
 98100  1  0
 98101  1  0
101102  1  0
102103  1  0
103104  1  0
105106  1  0
106107  1  0
106109  1  6
107108  2  0
107116  1  0
109110  1  0
110111  2  0
110112  1  0
111113  1  0
112114  2  0
113115  2  0
114115  1  0
 32117  1  0
 60118  1  0
M  CHG  2  12   1  21   1
M  END
$$$$
