
     RDKit          3D

118120  0  0  0  0  0  0  0  0999 V2000
    6.4772   12.2129   10.8035 C   0  0  0  0  0  0  0  0  0  0  0  0
    6.3395   13.4247   10.6857 O   0  0  0  0  0  0  0  0  0  0  0  0
    7.7986   11.5684   11.1127 C   0  0  0  0  0  0  0  0  0  0  0  0
    5.4360   11.3291   10.6517 N   0  0  0  0  0  0  0  0  0  0  0  0
    4.2246   11.6718    9.9033 C   0  0  2  0  0  0  0  0  0  0  0  0
    3.0900   10.8596   10.5611 C   0  0  0  0  0  0  0  0  0  0  0  0
    3.2407   10.3164   11.6585 O   0  0  0  0  0  0  0  0  0  0  0  0
    4.3933   11.3520    8.4049 C   0  0  0  0  0  0  0  0  0  0  0  0
    3.6414   12.3657    7.5280 C   0  0  0  0  0  0  0  0  0  0  0  0
    4.3432   12.7812    6.2369 C   0  0  0  0  0  0  0  0  0  0  0  0
    3.4693   13.6335    5.3272 C   0  0  0  0  0  0  0  0  0  0  0  0
    3.0684   14.8576    6.0585 N   0  0  0  0  0  4  0  0  0  0  0  0
    1.9023   10.7800    9.8577 N   0  0  0  0  0  0  0  0  0  0  0  0
    1.9461   10.2078    8.5135 C   0  0  2  0  0  0  0  0  0  0  0  0
    0.5745    9.5641    8.2304 C   0  0  0  0  0  0  0  0  0  0  0  0
    0.1966    8.5394    8.7927 O   0  0  0  0  0  0  0  0  0  0  0  0
    3.0517    9.1578    8.3359 C   0  0  0  0  0  0  0  0  0  0  0  0
    3.2258    8.2871    9.5865 C   0  0  0  0  0  0  0  0  0  0  0  0
    2.0037    7.4062    9.8951 C   0  0  0  0  0  0  0  0  0  0  0  0
    2.2104    6.4951   11.1034 C   0  0  0  0  0  0  0  0  0  0  0  0
    1.5905    7.1182   12.2995 N   0  0  0  0  0  4  0  0  0  0  0  0
   -0.1547   10.2337    7.2737 N   0  0  0  0  0  0  0  0  0  0  0  0
   -1.5364    9.8979    6.9784 C   0  0  2  0  0  0  0  0  0  0  0  0
   -1.6510    8.4514    6.4589 C   0  0  0  0  0  0  0  0  0  0  0  0
   -0.8440    7.9567    5.6710 O   0  0  0  0  0  0  0  0  0  0  0  0
   -2.1320   10.8756    5.9587 C   0  0  0  0  0  0  0  0  0  0  0  0
   -3.3362   10.3590    5.1634 C   0  0  0  0  0  0  0  0  0  0  0  0
   -4.5282   11.3014    5.3384 C   0  0  0  0  0  0  0  0  0  0  0  0
   -5.2924   11.4205    4.1128 N   0  0  0  0  0  0  0  0  0  0  0  0
   -6.6247   11.2116    4.0461 C   0  0  0  0  0  0  0  0  0  0  0  0
   -7.3038   12.3742    4.0130 N   0  0  0  0  0  0  0  0  0  0  0  0
   -7.1915   10.0611    4.0402 N   0  0  0  0  0  0  0  0  0  0  0  0
   -2.7813    7.8053    6.9100 N   0  0  0  0  0  0  0  0  0  0  0  0
   -3.1405    6.4422    6.5069 C   0  0  2  0  0  0  0  0  0  0  0  0
   -3.5443    6.4164    5.0128 C   0  0  0  0  0  0  0  0  0  0  0  0
   -3.7892    7.4205    4.3514 O   0  0  0  0  0  0  0  0  0  0  0  0
   -4.1886    5.7705    7.4157 C   0  0  0  0  0  0  0  0  0  0  0  0
   -3.7132    4.5583    8.1843 C   0  0  0  0  0  0  0  0  0  0  0  0
   -2.3992    4.0949    8.0372 C   0  0  0  0  0  0  0  0  0  0  0  0
   -4.5658    3.9057    9.0893 C   0  0  0  0  0  0  0  0  0  0  0  0
   -1.9399    3.0013    8.7773 C   0  0  0  0  0  0  0  0  0  0  0  0
   -4.1037    2.8184    9.8317 C   0  0  0  0  0  0  0  0  0  0  0  0
   -2.7985    2.3730    9.6688 C   0  0  0  0  0  0  0  0  0  0  0  0
   -2.3855    1.3115   10.4215 O   0  0  0  0  0  0  0  0  0  0  0  0
   -3.7190    5.1497    4.4934 N   0  0  0  0  0  0  0  0  0  0  0  0
   -3.9932    4.9109    3.0768 C   0  0  2  0  0  0  0  0  0  0  0  0
   -5.1116    3.8510    2.9682 C   0  0  0  0  0  0  0  0  0  0  0  0
   -5.0489    2.7663    3.5449 O   0  0  0  0  0  0  0  0  0  0  0  0
   -2.7213    4.4273    2.3481 C   0  0  0  0  0  0  0  0  0  0  0  0
   -1.6817    5.4135    2.3370 O   0  0  0  0  0  0  0  0  0  0  0  0
   -6.1657    4.2136    2.1557 N   0  0  0  0  0  0  0  0  0  0  0  0
   -7.3336    3.3551    1.9502 C   0  0  2  0  0  0  0  0  0  0  0  0
   -6.9544    1.8483    1.9767 C   0  0  0  0  0  0  0  0  0  0  0  0
   -6.2480    1.3669    2.8569 O   0  0  0  0  0  0  0  0  0  0  0  0
   -8.0085    3.6479    0.6036 C   0  0  0  0  0  0  0  0  0  0  0  0
   -9.2098    4.5887    0.7150 C   0  0  0  0  0  0  0  0  0  0  0  0
   -9.0520    5.7830   -0.2261 C   0  0  0  0  0  0  0  0  0  0  0  0
  -10.2128    6.6499   -0.1675 N   0  0  0  0  0  0  0  0  0  0  0  0
  -10.4869    7.4280    0.9013 C   0  0  0  0  0  0  0  0  0  0  0  0
  -11.1577    8.5171    0.8691 N   0  0  0  0  0  0  0  0  0  0  0  0
   -9.9424    6.9239    2.0293 N   0  0  0  0  0  0  0  0  0  0  0  0
   -9.4736    3.7665   -0.2519 O   0  0  0  0  0  0  0  0  0  0  0  0
   -9.1818    2.9017    0.5753 C   0  0  0  0  0  0  0  0  0  0  0  0
   -8.6827    1.4744    0.1611 C   0  0  2  0  0  0  0  0  0  0  0  0
   -9.7700    0.4508    0.5339 C   0  0  0  0  0  0  0  0  0  0  0  0
   -7.4857    1.0906    0.9486 N   0  0  0  0  0  0  0  0  0  0  0  0
   -8.3482    1.4114   -1.3664 C   0  0  0  0  0  0  0  0  0  0  0  0
   -9.4494    0.9684   -2.3643 C   0  0  0  0  0  0  0  0  0  0  0  0
  -10.0962    2.0572   -3.2314 C   0  0  0  0  0  0  0  0  0  0  0  0
  -11.0534    2.9645   -2.5227 C   0  0  0  0  0  0  0  0  0  0  0  0
   -9.4449    3.2638    1.8593 N   0  0  0  0  0  0  0  0  0  0  0  0
   -9.0093    2.7067    3.1359 C   0  0  2  0  0  0  0  0  0  0  0  0
  -10.0658    1.8131    3.8286 C   0  0  0  0  0  0  0  0  0  0  0  0
   -9.8548    1.1836    4.8654 O   0  0  0  0  0  0  0  0  0  0  0  0
   -8.6149    3.8386    4.0837 C   0  0  0  0  0  0  0  0  0  0  0  0
   -7.7412    3.3871    5.2578 C   0  0  0  0  0  0  0  0  0  0  0  0
   -7.1203    2.0357    4.9784 C   0  0  0  0  0  0  0  0  0  0  0  0
   -6.1911    1.5590    5.6222 O   0  0  0  0  0  0  0  0  0  0  0  0
   -7.6716    1.3720    3.9274 N   0  0  0  0  0  0  0  0  0  0  0  0
  -11.2801    1.7095    3.1886 N   0  0  0  0  0  0  0  0  0  0  0  0
  -12.4506    2.3542    3.8165 C   0  0  2  0  0  0  0  0  0  0  0  0
  -13.6252    1.3853    3.4953 C   0  0  0  0  0  0  0  0  0  0  0  0
  -13.4045    0.2146    3.1780 O   0  0  0  0  0  0  0  0  0  0  0  0
  -12.6334    3.7822    3.2846 C   0  0  0  0  0  0  0  0  0  0  0  0
  -11.5333    4.2825    2.3221 C   0  0  1  0  0  0  0  0  0  0  0  0
  -10.1747    3.6430    2.6047 C   0  0  0  0  0  0  0  0  0  0  0  0
  -11.9492    3.9878    0.8783 C   0  0  0  0  0  0  0  0  0  0  0  0
  -14.8967    1.8750    3.6748 N   0  0  0  0  0  0  0  0  0  0  0  0
  -16.0582    1.0690    3.2917 C   0  0  2  0  0  0  0  0  0  0  0  0
  -16.8496    2.0140    2.3645 C   0  0  0  0  0  0  0  0  0  0  0  0
  -17.5613    2.9014    2.8711 O   0  0  0  0  0  0  0  0  0  0  0  0
  -16.9393    0.7231    4.5097 C   0  0  0  0  0  0  0  0  0  0  0  0
  -16.3357   -0.1316    5.6415 C   0  0  1  0  0  0  0  0  0  0  0  0
  -15.9862   -1.5492    5.2070 C   0  0  0  0  0  0  0  0  0  0  0  0
  -15.1509    0.5428    6.3319 C   0  0  0  0  0  0  0  0  0  0  0  0
  -17.7704    0.2723   -1.6195 O   0  0  0  0  0  0  0  0  0  0  0  0
  -17.3436    1.2942   -1.0723 C   0  0  0  0  0  0  0  0  0  0  0  0
  -16.1409    1.2159   -0.0587 C   0  0  2  0  0  0  0  0  0  0  0  0
  -15.9456   -0.2410    0.3632 C   0  0  0  0  0  0  0  0  0  0  0  0
  -16.6023    2.1348    1.0364 N   0  0  0  0  0  0  0  0  0  0  0  0
  -14.8913    1.8701   -0.7146 C   0  0  0  0  0  0  0  0  0  0  0  0
  -13.9430    0.9407   -1.4974 C   0  0  0  0  0  0  0  0  0  0  0  0
  -13.2077    1.6165   -2.6655 C   0  0  0  0  0  0  0  0  0  0  0  0
  -12.3614    2.7888   -2.2759 C   0  0  0  0  0  0  0  0  0  0  0  0
  -17.8954    2.5294   -1.3080 N   0  0  0  0  0  0  0  0  0  0  0  0
  -17.5769    3.6943   -0.4701 C   0  0  2  0  0  0  0  0  0  0  0  0
  -18.3252    4.9240   -1.0085 C   0  0  0  0  0  0  0  0  0  0  0  0
  -19.2357    5.4775   -0.4042 O   0  0  0  0  0  0  0  0  0  0  0  0
  -16.0683    3.9786   -0.3231 C   0  0  0  0  0  0  0  0  0  0  0  0
  -15.1903    3.3943   -1.4108 C   0  0  0  0  0  0  0  0  0  0  0  0
  -13.8062    3.6237   -1.4035 C   0  0  0  0  0  0  0  0  0  0  0  0
  -15.7428    2.6248   -2.4415 C   0  0  0  0  0  0  0  0  0  0  0  0
  -12.9949    3.0817   -2.3999 C   0  0  0  0  0  0  0  0  0  0  0  0
  -14.9264    2.0742   -3.4321 C   0  0  0  0  0  0  0  0  0  0  0  0
  -13.5552    2.3017   -3.4082 C   0  0  0  0  0  0  0  0  0  0  0  0
  -17.8442    5.4520   -2.1846 N   0  0  0  0  0  0  0  0  0  0  0  0
   -6.4820    9.3346    3.9299 H   0  0  0  0  0  0  0  0  0  0  0  0
  -11.0006    8.9910   -0.0182 H   0  0  0  0  0  0  0  0  0  0  0  0
  1  2  2  0
  1  3  1  0
  4  1  1  0
  5  4  1  0
  6  5  1  0
  5  8  1  6
  6  7  2  0
 13  6  1  0
  8  9  1  0
  9 10  1  0
 10 11  1  0
 11 12  1  0
 14 13  1  0
 15 14  1  0
 14 17  1  1
 15 16  2  0
 22 15  1  0
 17 18  1  0
 18 19  1  0
 19 20  1  0
 20 21  1  0
 23 22  1  0
 24 23  1  0
 23 26  1  6
 24 25  2  0
 33 24  1  0
 26 27  1  0
 27 28  1  0
 28 29  1  0
 29 30  1  0
 30 31  1  0
 30 32  2  0
 34 33  1  0
 35 34  1  0
 34 37  1  1
 35 36  2  0
 45 35  1  0
 37 38  1  0
 38 39  2  0
 38 40  1  0
 39 41  1  0
 40 42  2  0
 41 43  2  0
 42 43  1  0
 43 44  1  0
 46 45  1  0
 47 46  1  0
 46 49  1  6
 47 48  2  0
 51 47  1  0
 49 50  1  0
 52 51  1  0
 53 52  1  0
 52 55  1  6
 53 54  2  0
 66 53  1  0
 55 56  1  0
 56 57  1  0
 57 58  1  0
 58 59  1  0
 59 60  2  0
 59 61  1  0
 63 62  2  0
 63 64  1  0
 71 63  1  0
 64 65  1  6
 64 66  1  0
 64 67  1  0
 67 68  1  0
 68 69  1  0
 69 70  1  0
 70104  2  0
 72 71  1  0
 73 72  1  0
 72 75  1  1
 73 74  2  0
 80 73  1  0
 75 76  1  0
 76 77  1  0
 77 78  2  0
 77 79  1  0
 81 80  1  0
 82 81  1  0
 81 84  1  6
 82 83  2  0
 88 82  1  0
 84 85  1  0
 85 86  1  1
 85 87  1  0
 89 88  1  0
 90 89  1  0
 89 92  1  1
 90 91  2  0
100 90  1  0
 92 93  1  0
 93 94  1  6
 93 95  1  0
 97 96  2  0
 98 97  1  0
 97105  1  0
 98 99  1  1
 98100  1  0
 98101  1  0
101102  1  0
102103  1  0
103104  1  0
105106  1  0
106107  1  0
106109  1  6
107108  2  0
107116  1  0
109110  1  0
110111  2  0
110112  1  0
111113  1  0
112114  2  0
113115  2  0
114115  1  0
 32117  1  0
 60118  1  0
M  CHG  2  12   1  21   1
M  END
$$$$
