
     RDKit          3D

118120  0  0  0  0  0  0  0  0999 V2000
   -0.8521    8.3623    1.0840 C   0  0  0  0  0  0  0  0  0  0  0  0
    0.1463    7.6785    0.8920 O   0  0  0  0  0  0  0  0  0  0  0  0
   -0.9215    9.8213    0.7325 C   0  0  0  0  0  0  0  0  0  0  0  0
   -1.9987    7.8594    1.6506 N   0  0  0  0  0  0  0  0  0  0  0  0
   -3.3039    8.4984    1.4685 C   0  0  2  0  0  0  0  0  0  0  0  0
   -3.6541    8.3035   -0.0212 C   0  0  0  0  0  0  0  0  0  0  0  0
   -3.2280    9.0715   -0.8878 O   0  0  0  0  0  0  0  0  0  0  0  0
   -3.2526    9.9836    1.8778 C   0  0  0  0  0  0  0  0  0  0  0  0
   -4.5996   10.4537    2.4490 C   0  0  0  0  0  0  0  0  0  0  0  0
   -5.4831   11.2588    1.4985 C   0  0  0  0  0  0  0  0  0  0  0  0
   -6.7377   11.8059    2.1650 C   0  0  0  0  0  0  0  0  0  0  0  0
   -7.1872   13.0077    1.4252 N   0  0  0  0  0  4  0  0  0  0  0  0
   -4.4625    7.2245   -0.3274 N   0  0  0  0  0  0  0  0  0  0  0  0
   -5.1418    7.2305   -1.6215 C   0  0  2  0  0  0  0  0  0  0  0  0
   -5.7306    8.6383   -1.8383 C   0  0  0  0  0  0  0  0  0  0  0  0
   -5.3438    9.3860   -2.7329 O   0  0  0  0  0  0  0  0  0  0  0  0
   -6.2611    6.1852   -1.7250 C   0  0  0  0  0  0  0  0  0  0  0  0
   -6.1967    5.4002   -3.0410 C   0  0  0  0  0  0  0  0  0  0  0  0
   -4.9131    4.5676   -3.1960 C   0  0  0  0  0  0  0  0  0  0  0  0
   -3.7803    5.3326   -3.8774 C   0  0  0  0  0  0  0  0  0  0  0  0
   -2.5378    4.5226   -3.8209 N   0  0  0  0  0  4  0  0  0  0  0  0
   -6.6984    8.9718   -0.9177 N   0  0  0  0  0  0  0  0  0  0  0  0
   -7.9087    9.6828   -1.2905 C   0  0  2  0  0  0  0  0  0  0  0  0
   -7.9444   11.0820   -0.6454 C   0  0  0  0  0  0  0  0  0  0  0  0
   -8.2228   12.1031   -1.2752 O   0  0  0  0  0  0  0  0  0  0  0  0
   -9.1567    8.8851   -0.8949 C   0  0  0  0  0  0  0  0  0  0  0  0
   -9.6382    9.0717    0.5484 C   0  0  0  0  0  0  0  0  0  0  0  0
  -10.9090    8.2557    0.7907 C   0  0  0  0  0  0  0  0  0  0  0  0
  -10.6292    7.0552    1.5529 N   0  0  0  0  0  0  0  0  0  0  0  0
  -11.3004    6.7150    2.6738 C   0  0  0  0  0  0  0  0  0  0  0  0
  -11.4461    5.3798    2.7737 N   0  0  0  0  0  0  0  0  0  0  0  0
  -11.7698    7.5438    3.5327 N   0  0  0  0  0  0  0  0  0  0  0  0
   -7.5643   11.0741    0.6790 N   0  0  0  0  0  0  0  0  0  0  0  0
   -7.9201   12.1390    1.6217 C   0  0  2  0  0  0  0  0  0  0  0  0
   -7.0619   12.0246    2.9049 C   0  0  0  0  0  0  0  0  0  0  0  0
   -6.0972   12.7420    3.1506 O   0  0  0  0  0  0  0  0  0  0  0  0
   -9.4283   12.2365    1.9243 C   0  0  0  0  0  0  0  0  0  0  0  0
  -10.0208   13.6268    1.8759 C   0  0  0  0  0  0  0  0  0  0  0  0
  -11.3725   13.8334    2.1813 C   0  0  0  0  0  0  0  0  0  0  0  0
   -9.2172   14.7364    1.5679 C   0  0  0  0  0  0  0  0  0  0  0  0
  -11.9166   15.1213    2.1810 C   0  0  0  0  0  0  0  0  0  0  0  0
   -9.7605   16.0216    1.5743 C   0  0  0  0  0  0  0  0  0  0  0  0
  -11.1035   16.2043    1.8770 C   0  0  0  0  0  0  0  0  0  0  0  0
  -11.5913   17.4794    1.8800 O   0  0  0  0  0  0  0  0  0  0  0  0
   -7.3993   10.9641    3.7212 N   0  0  0  0  0  0  0  0  0  0  0  0
   -6.6907   10.6736    4.9672 C   0  0  2  0  0  0  0  0  0  0  0  0
   -6.5662    9.1407    5.1116 C   0  0  0  0  0  0  0  0  0  0  0  0
   -7.5161    8.3824    4.9230 O   0  0  0  0  0  0  0  0  0  0  0  0
   -7.4445   11.2682    6.1759 C   0  0  0  0  0  0  0  0  0  0  0  0
   -8.2718   12.3822    5.8179 O   0  0  0  0  0  0  0  0  0  0  0  0
   -5.3146    8.7023    5.4911 N   0  0  0  0  0  0  0  0  0  0  0  0
   -5.0239    7.2948    5.7698 C   0  0  2  0  0  0  0  0  0  0  0  0
   -5.9599    6.7184    6.8681 C   0  0  0  0  0  0  0  0  0  0  0  0
   -6.1482    7.2939    7.9353 O   0  0  0  0  0  0  0  0  0  0  0  0
   -3.5750    7.1091    6.2399 C   0  0  0  0  0  0  0  0  0  0  0  0
   -2.5443    7.7480    5.3072 C   0  0  0  0  0  0  0  0  0  0  0  0
   -2.5906    9.2724    5.4114 C   0  0  0  0  0  0  0  0  0  0  0  0
   -1.3728    9.8674    4.8964 N   0  0  0  0  0  0  0  0  0  0  0  0
   -0.4477   10.4399    5.6960 C   0  0  0  0  0  0  0  0  0  0  0  0
   -0.7031   11.1635    6.7199 N   0  0  0  0  0  0  0  0  0  0  0  0
    0.8050   10.1719    5.2695 N   0  0  0  0  0  0  0  0  0  0  0  0
   -7.3920    5.6920    3.1026 O   0  0  0  0  0  0  0  0  0  0  0  0
   -7.6087    5.3495    4.2658 C   0  0  0  0  0  0  0  0  0  0  0  0
   -6.4700    4.8576    5.2248 C   0  0  2  0  0  0  0  0  0  0  0  0
   -6.6773    3.3570    5.4977 C   0  0  0  0  0  0  0  0  0  0  0  0
   -6.5764    5.5226    6.5464 N   0  0  0  0  0  0  0  0  0  0  0  0
   -5.0556    5.1299    4.6128 C   0  0  0  0  0  0  0  0  0  0  0  0
   -4.3763    4.0284    3.7584 C   0  0  0  0  0  0  0  0  0  0  0  0
   -4.3393    4.2362    2.2381 C   0  0  0  0  0  0  0  0  0  0  0  0
   -5.6409    4.0358    1.5261 C   0  0  0  0  0  0  0  0  0  0  0  0
   -8.9287    5.3285    4.5918 N   0  0  0  0  0  0  0  0  0  0  0  0
   -9.6117    5.2757    5.8804 C   0  0  2  0  0  0  0  0  0  0  0  0
  -10.1346    3.8699    6.2610 C   0  0  0  0  0  0  0  0  0  0  0  0
  -10.6567    3.6049    7.3440 O   0  0  0  0  0  0  0  0  0  0  0  0
  -10.7803    6.2601    5.8841 C   0  0  0  0  0  0  0  0  0  0  0  0
  -11.8726    5.9210    6.9029 C   0  0  0  0  0  0  0  0  0  0  0  0
  -11.4437    4.7723    7.7896 C   0  0  0  0  0  0  0  0  0  0  0  0
  -10.7672    3.8230    7.4071 O   0  0  0  0  0  0  0  0  0  0  0  0
  -11.8818    4.8616    9.0738 N   0  0  0  0  0  0  0  0  0  0  0  0
   -9.9415    2.8810    5.3230 N   0  0  0  0  0  0  0  0  0  0  0  0
  -11.1276    2.3526    4.6203 C   0  0  2  0  0  0  0  0  0  0  0  0
  -10.8057    0.8417    4.4326 C   0  0  0  0  0  0  0  0  0  0  0  0
   -9.9511    0.2905    5.1294 O   0  0  0  0  0  0  0  0  0  0  0  0
  -11.3728    3.1229    3.3157 C   0  0  0  0  0  0  0  0  0  0  0  0
  -10.1066    3.5022    2.5158 C   0  0  1  0  0  0  0  0  0  0  0  0
   -9.4262    4.7576    3.0596 C   0  0  0  0  0  0  0  0  0  0  0  0
   -9.1200    2.3316    2.5414 C   0  0  0  0  0  0  0  0  0  0  0  0
  -11.5800    0.1526    3.5301 N   0  0  0  0  0  0  0  0  0  0  0  0
  -11.2741   -1.2439    3.2112 C   0  0  2  0  0  0  0  0  0  0  0  0
  -11.1694   -1.2367    1.6724 C   0  0  0  0  0  0  0  0  0  0  0  0
  -12.2144   -1.2518    0.9954 O   0  0  0  0  0  0  0  0  0  0  0  0
  -12.4234   -2.1876    3.6218 C   0  0  0  0  0  0  0  0  0  0  0  0
  -13.0759   -2.0014    5.0057 C   0  0  1  0  0  0  0  0  0  0  0  0
  -12.0716   -1.9951    6.1510 C   0  0  0  0  0  0  0  0  0  0  0  0
  -13.9977   -0.7844    5.0722 C   0  0  0  0  0  0  0  0  0  0  0  0
   -7.2282   -2.7958    0.0851 O   0  0  0  0  0  0  0  0  0  0  0  0
   -8.1304   -1.9570   -0.0067 C   0  0  0  0  0  0  0  0  0  0  0  0
   -8.5596   -1.1038    1.2454 C   0  0  2  0  0  0  0  0  0  0  0  0
   -8.2055   -1.8789    2.5152 C   0  0  0  0  0  0  0  0  0  0  0  0
  -10.0312   -0.9240    1.0041 N   0  0  0  0  0  0  0  0  0  0  0  0
   -7.8997    0.3011    1.1426 C   0  0  0  0  0  0  0  0  0  0  0  0
   -6.5289    0.4833    1.8235 C   0  0  0  0  0  0  0  0  0  0  0  0
   -5.6144    1.5185    1.1500 C   0  0  0  0  0  0  0  0  0  0  0  0
   -6.1887    2.8990    1.0674 C   0  0  0  0  0  0  0  0  0  0  0  0
   -8.8018   -1.7379   -1.1844 N   0  0  0  0  0  0  0  0  0  0  0  0
  -10.1352   -1.1200   -1.2140 C   0  0  2  0  0  0  0  0  0  0  0  0
  -10.2882   -0.1898   -0.0003 C   0  0  0  0  0  0  0  0  0  0  0  0
  -11.2930    0.4767    0.2164 O   0  0  0  0  0  0  0  0  0  0  0  0
  -11.3009   -2.1263   -1.2969 C   0  0  0  0  0  0  0  0  0  0  0  0
  -11.3953   -2.9022   -2.5948 C   0  0  0  0  0  0  0  0  0  0  0  0
  -10.4694   -2.6760   -3.6243 C   0  0  0  0  0  0  0  0  0  0  0  0
  -12.4076   -3.8489   -2.7917 C   0  0  0  0  0  0  0  0  0  0  0  0
  -10.5501   -3.3934   -4.8175 C   0  0  0  0  0  0  0  0  0  0  0  0
  -12.4795   -4.5737   -3.9836 C   0  0  0  0  0  0  0  0  0  0  0  0
  -11.5503   -4.3464   -4.9922 C   0  0  0  0  0  0  0  0  0  0  0  0
   -9.2585   -0.2188    0.9119 N   0  0  0  0  0  0  0  0  0  0  0  0
  -12.3961    8.1999    3.0630 H   0  0  0  0  0  0  0  0  0  0  0  0
   -1.7106   11.2642    6.8267 H   0  0  0  0  0  0  0  0  0  0  0  0
  1  2  2  0
  1  3  1  0
  4  1  1  0
  5  4  1  0
  6  5  1  0
  5  8  1  6
  6  7  2  0
 13  6  1  0
  8  9  1  0
  9 10  1  0
 10 11  1  0
 11 12  1  0
 14 13  1  0
 15 14  1  0
 14 17  1  1
 15 16  2  0
 22 15  1  0
 17 18  1  0
 18 19  1  0
 19 20  1  0
 20 21  1  0
 23 22  1  0
 24 23  1  0
 23 26  1  1
 24 25  2  0
 33 24  1  0
 26 27  1  0
 27 28  1  0
 28 29  1  0
 29 30  1  0
 30 31  1  0
 30 32  2  0
 34 33  1  0
 35 34  1  0
 34 37  1  1
 35 36  2  0
 45 35  1  0
 37 38  1  0
 38 39  2  0
 38 40  1  0
 39 41  1  0
 40 42  2  0
 41 43  2  0
 42 43  1  0
 43 44  1  0
 46 45  1  0
 47 46  1  0
 46 49  1  1
 47 48  2  0
 51 47  1  0
 49 50  1  0
 52 51  1  0
 53 52  1  0
 52 55  1  1
 53 54  2  0
 66 53  1  0
 55 56  1  0
 56 57  1  0
 57 58  1  0
 58 59  1  0
 59 60  2  0
 59 61  1  0
 63 62  2  0
 63 64  1  0
 71 63  1  0
 64 65  1  1
 64 66  1  0
 64 67  1  0
 67 68  1  0
 68 69  1  0
 69 70  1  0
 70104  2  0
 72 71  1  0
 73 72  1  0
 72 75  1  6
 73 74  2  0
 80 73  1  0
 75 76  1  0
 76 77  1  0
 77 78  2  0
 77 79  1  0
 81 80  1  0
 82 81  1  0
 81 84  1  6
 82 83  2  0
 88 82  1  0
 84 85  1  0
 85 86  1  1
 85 87  1  0
 89 88  1  0
 90 89  1  0
 89 92  1  6
 90 91  2  0
100 90  1  0
 92 93  1  0
 93 94  1  1
 93 95  1  0
 97 96  2  0
 98 97  1  0
 97105  1  0
 98 99  1  1
 98100  1  0
 98101  1  0
101102  1  0
102103  1  0
103104  1  0
105106  1  0
106107  1  0
106109  1  1
107108  2  0
107116  1  0
109110  1  0
110111  2  0
110112  1  0
111113  1  0
112114  2  0
113115  2  0
114115  1  0
 32117  1  0
 60118  1  0
M  CHG  2  12   1  21   1
M  END
$$$$
