
     RDKit          3D

118120  0  0  0  0  0  0  0  0999 V2000
   -5.4749    4.9157   13.9612 C   0  0  0  0  0  0  0  0  0  0  0  0
   -6.1304    5.9415   14.1002 O   0  0  0  0  0  0  0  0  0  0  0  0
   -5.9112    3.5879   14.5122 C   0  0  0  0  0  0  0  0  0  0  0  0
   -4.2719    4.8875   13.2974 N   0  0  0  0  0  0  0  0  0  0  0  0
   -3.8472    5.9694   12.4063 C   0  0  2  0  0  0  0  0  0  0  0  0
   -4.2492    5.5165   10.9874 C   0  0  0  0  0  0  0  0  0  0  0  0
   -3.8037    4.4774   10.4936 O   0  0  0  0  0  0  0  0  0  0  0  0
   -2.3342    6.2321   12.5401 C   0  0  0  0  0  0  0  0  0  0  0  0
   -1.5148    5.2007   11.7486 C   0  0  0  0  0  0  0  0  0  0  0  0
    0.0025    5.3081   11.8837 C   0  0  0  0  0  0  0  0  0  0  0  0
    0.6086    6.3856   10.9953 C   0  0  0  0  0  0  0  0  0  0  0  0
    2.0849    6.2850   11.0605 N   0  0  0  0  0  4  0  0  0  0  0  0
   -5.1343    6.3332   10.3084 N   0  0  0  0  0  0  0  0  0  0  0  0
   -4.8731    6.5895    8.8934 C   0  0  2  0  0  0  0  0  0  0  0  0
   -5.1470    8.0827    8.6264 C   0  0  0  0  0  0  0  0  0  0  0  0
   -6.1557    8.6529    9.0342 O   0  0  0  0  0  0  0  0  0  0  0  0
   -5.7329    5.7344    7.9521 C   0  0  0  0  0  0  0  0  0  0  0  0
   -7.2197    5.7846    8.3249 C   0  0  0  0  0  0  0  0  0  0  0  0
   -7.4683    6.0334    9.8219 C   0  0  0  0  0  0  0  0  0  0  0  0
   -7.6310    4.7448   10.6256 C   0  0  0  0  0  0  0  0  0  0  0  0
   -9.0553    4.5835   11.0111 N   0  0  0  0  0  4  0  0  0  0  0  0
   -4.1702    8.6889    7.8690 N   0  0  0  0  0  0  0  0  0  0  0  0
   -3.8675    8.2647    6.5134 C   0  0  2  0  0  0  0  0  0  0  0  0
   -5.1055    8.4018    5.6057 C   0  0  0  0  0  0  0  0  0  0  0  0
   -6.2038    8.7723    6.0222 O   0  0  0  0  0  0  0  0  0  0  0  0
   -3.3532    6.8206    6.4931 C   0  0  0  0  0  0  0  0  0  0  0  0
   -1.8712    6.6450    6.1427 C   0  0  0  0  0  0  0  0  0  0  0  0
   -1.4323    5.2045    6.4113 C   0  0  0  0  0  0  0  0  0  0  0  0
   -2.5731    4.3290    6.5909 N   0  0  0  0  0  0  0  0  0  0  0  0
   -2.4642    2.9935    6.7572 C   0  0  0  0  0  0  0  0  0  0  0  0
   -1.5192    2.6866    7.6665 N   0  0  0  0  0  0  0  0  0  0  0  0
   -3.1461    2.1129    6.1212 N   0  0  0  0  0  0  0  0  0  0  0  0
   -4.8698    7.9993    4.3092 N   0  0  0  0  0  0  0  0  0  0  0  0
   -5.6531    8.4779    3.1661 C   0  0  2  0  0  0  0  0  0  0  0  0
   -5.1419    7.8262    1.8584 C   0  0  0  0  0  0  0  0  0  0  0  0
   -4.7584    8.4606    0.8807 O   0  0  0  0  0  0  0  0  0  0  0  0
   -5.7494   10.0129    3.0648 C   0  0  0  0  0  0  0  0  0  0  0  0
   -6.1849   10.5580    1.7234 C   0  0  0  0  0  0  0  0  0  0  0  0
   -7.3569   11.3177    1.6124 C   0  0  0  0  0  0  0  0  0  0  0  0
   -5.4002   10.3494    0.5778 C   0  0  0  0  0  0  0  0  0  0  0  0
   -7.7425   11.8615    0.3836 C   0  0  0  0  0  0  0  0  0  0  0  0
   -5.7834   10.8981   -0.6466 C   0  0  0  0  0  0  0  0  0  0  0  0
   -6.9504   11.6458   -0.7356 C   0  0  0  0  0  0  0  0  0  0  0  0
   -7.2829   12.1712   -1.9510 O   0  0  0  0  0  0  0  0  0  0  0  0
   -5.2519    6.4507    1.8285 N   0  0  0  0  0  0  0  0  0  0  0  0
   -4.2048    5.5892    1.2805 C   0  0  2  0  0  0  0  0  0  0  0  0
   -4.8776    4.4543    0.4771 C   0  0  0  0  0  0  0  0  0  0  0  0
   -4.9471    3.3009    0.8989 O   0  0  0  0  0  0  0  0  0  0  0  0
   -3.3319    5.0036    2.4109 C   0  0  0  0  0  0  0  0  0  0  0  0
   -3.8888    3.8114    2.9783 O   0  0  0  0  0  0  0  0  0  0  0  0
   -5.3674    4.8382   -0.7539 N   0  0  0  0  0  0  0  0  0  0  0  0
   -5.8739    3.8768   -1.7350 C   0  0  2  0  0  0  0  0  0  0  0  0
   -4.8541    2.7359   -2.0051 C   0  0  0  0  0  0  0  0  0  0  0  0
   -3.8718    2.8930   -2.7234 O   0  0  0  0  0  0  0  0  0  0  0  0
   -6.1832    4.5598   -3.0738 C   0  0  0  0  0  0  0  0  0  0  0  0
   -7.6252    5.0584   -3.1857 C   0  0  0  0  0  0  0  0  0  0  0  0
   -7.7818    6.0008   -4.3791 C   0  0  0  0  0  0  0  0  0  0  0  0
   -6.8840    5.6317   -5.4562 N   0  0  0  0  0  0  0  0  0  0  0  0
   -6.8790    6.2649   -6.6487 C   0  0  0  0  0  0  0  0  0  0  0  0
   -6.4644    5.7620   -7.7498 N   0  0  0  0  0  0  0  0  0  0  0  0
   -7.3531    7.5243   -6.5390 N   0  0  0  0  0  0  0  0  0  0  0  0
   -8.6323    1.6769   -1.8514 O   0  0  0  0  0  0  0  0  0  0  0  0
   -7.5698    2.1074   -1.4007 C   0  0  0  0  0  0  0  0  0  0  0  0
   -6.4561    1.1659   -0.8252 C   0  0  2  0  0  0  0  0  0  0  0  0
   -6.3667    1.3893    0.6950 C   0  0  0  0  0  0  0  0  0  0  0  0
   -5.1256    1.5410   -1.3633 N   0  0  0  0  0  0  0  0  0  0  0  0
   -6.7530   -0.3341   -1.1589 C   0  0  0  0  0  0  0  0  0  0  0  0
   -7.5552   -1.1900   -0.1447 C   0  0  0  0  0  0  0  0  0  0  0  0
   -9.0136   -1.5166   -0.4940 C   0  0  0  0  0  0  0  0  0  0  0  0
   -9.9812   -0.3824   -0.3564 C   0  0  0  0  0  0  0  0  0  0  0  0
   -7.5109    3.4648   -1.3444 N   0  0  0  0  0  0  0  0  0  0  0  0
   -6.3906    4.3835   -1.1687 C   0  0  2  0  0  0  0  0  0  0  0  0
   -6.2490    4.9393    0.2685 C   0  0  0  0  0  0  0  0  0  0  0  0
   -5.3174    5.6556    0.6356 O   0  0  0  0  0  0  0  0  0  0  0  0
   -6.5252    5.5518   -2.1442 C   0  0  0  0  0  0  0  0  0  0  0  0
   -7.3711    5.2321   -3.3804 C   0  0  0  0  0  0  0  0  0  0  0  0
   -6.6242    4.3109   -4.3202 C   0  0  0  0  0  0  0  0  0  0  0  0
   -5.9144    4.6976   -5.2431 O   0  0  0  0  0  0  0  0  0  0  0  0
   -6.8081    2.9868   -4.0711 N   0  0  0  0  0  0  0  0  0  0  0  0
   -7.2174    4.5465    1.1645 N   0  0  0  0  0  0  0  0  0  0  0  0
   -8.1832    5.5620    1.6291 C   0  0  2  0  0  0  0  0  0  0  0  0
   -8.4414    5.1769    3.1147 C   0  0  0  0  0  0  0  0  0  0  0  0
   -7.6444    4.4618    3.7255 O   0  0  0  0  0  0  0  0  0  0  0  0
   -9.4349    5.5664    0.7410 C   0  0  0  0  0  0  0  0  0  0  0  0
   -9.6794    4.2775   -0.0751 C   0  0  1  0  0  0  0  0  0  0  0  0
   -9.8225    3.0422    0.8127 C   0  0  0  0  0  0  0  0  0  0  0  0
  -10.9407    4.4470   -0.9264 C   0  0  0  0  0  0  0  0  0  0  0  0
   -9.5365    5.7462    3.7191 N   0  0  0  0  0  0  0  0  0  0  0  0
   -9.9155    5.3540    5.0785 C   0  0  2  0  0  0  0  0  0  0  0  0
  -11.3971    4.9530    4.9269 C   0  0  0  0  0  0  0  0  0  0  0  0
  -12.2635    5.8464    4.8823 O   0  0  0  0  0  0  0  0  0  0  0  0
   -9.8247    6.5401    6.0606 C   0  0  0  0  0  0  0  0  0  0  0  0
   -8.9863    7.7701    5.6608 C   0  0  1  0  0  0  0  0  0  0  0  0
   -7.5006    7.4668    5.5152 C   0  0  0  0  0  0  0  0  0  0  0  0
   -9.5282    8.4855    4.4240 C   0  0  0  0  0  0  0  0  0  0  0  0
  -12.5603    0.4028    5.5964 O   0  0  0  0  0  0  0  0  0  0  0  0
  -12.5096    1.6312    5.4757 C   0  0  0  0  0  0  0  0  0  0  0  0
  -11.2929    2.3135    4.7450 C   0  0  2  0  0  0  0  0  0  0  0  0
  -10.0544    2.1955    5.6342 C   0  0  0  0  0  0  0  0  0  0  0  0
  -11.7992    3.7140    4.5488 N   0  0  0  0  0  0  0  0  0  0  0  0
  -11.1366    1.6770    3.3342 C   0  0  0  0  0  0  0  0  0  0  0  0
  -10.1876    0.4687    3.2116 C   0  0  0  0  0  0  0  0  0  0  0  0
  -10.5726   -0.5363    2.1146 C   0  0  0  0  0  0  0  0  0  0  0  0
  -10.6395    0.0411    0.7345 C   0  0  0  0  0  0  0  0  0  0  0  0
  -13.4912    2.4515    5.9750 N   0  0  0  0  0  0  0  0  0  0  0  0
  -13.2948    3.9018    6.1123 C   0  0  2  0  0  0  0  0  0  0  0  0
  -14.5826    4.5365    6.6605 C   0  0  0  0  0  0  0  0  0  0  0  0
  -14.5910    5.4191    7.5100 O   0  0  0  0  0  0  0  0  0  0  0  0
  -12.8310    4.6059    4.8210 C   0  0  0  0  0  0  0  0  0  0  0  0
  -12.8338    3.7425    3.5760 C   0  0  0  0  0  0  0  0  0  0  0  0
  -11.6853    3.6502    2.7755 C   0  0  0  0  0  0  0  0  0  0  0  0
  -13.9791    3.0306    3.2002 C   0  0  0  0  0  0  0  0  0  0  0  0
  -11.6832    2.8511    1.6325 C   0  0  0  0  0  0  0  0  0  0  0  0
  -13.9706    2.2226    2.0609 C   0  0  0  0  0  0  0  0  0  0  0  0
  -12.8231    2.1328    1.2813 C   0  0  0  0  0  0  0  0  0  0  0  0
  -15.7537    4.1302    6.0631 N   0  0  0  0  0  0  0  0  0  0  0  0
   -3.8859    2.5759    5.5905 H   0  0  0  0  0  0  0  0  0  0  0  0
   -7.1642    5.1220   -8.1201 H   0  0  0  0  0  0  0  0  0  0  0  0
  1  2  2  0
  1  3  1  0
  4  1  1  0
  5  4  1  0
  6  5  1  0
  5  8  1  6
  6  7  2  0
 13  6  1  0
  8  9  1  0
  9 10  1  0
 10 11  1  0
 11 12  1  0
 14 13  1  0
 15 14  1  0
 14 17  1  6
 15 16  2  0
 22 15  1  0
 17 18  1  0
 18 19  1  0
 19 20  1  0
 20 21  1  0
 23 22  1  0
 24 23  1  0
 23 26  1  1
 24 25  2  0
 33 24  1  0
 26 27  1  0
 27 28  1  0
 28 29  1  0
 29 30  1  0
 30 31  1  0
 30 32  2  0
 34 33  1  0
 35 34  1  0
 34 37  1  6
 35 36  2  0
 45 35  1  0
 37 38  1  0
 38 39  2  0
 38 40  1  0
 39 41  1  0
 40 42  2  0
 41 43  2  0
 42 43  1  0
 43 44  1  0
 46 45  1  0
 47 46  1  0
 46 49  1  1
 47 48  2  0
 51 47  1  0
 49 50  1  0
 52 51  1  0
 53 52  1  0
 52 55  1  6
 53 54  2  0
 66 53  1  0
 55 56  1  0
 56 57  1  0
 57 58  1  0
 58 59  1  0
 59 60  2  0
 59 61  1  0
 63 62  2  0
 63 64  1  0
 71 63  1  0
 64 65  1  1
 64 66  1  0
 64 67  1  0
 67 68  1  0
 68 69  1  0
 69 70  1  0
 70104  2  0
 72 71  1  0
 73 72  1  0
 72 75  1  6
 73 74  2  0
 80 73  1  0
 75 76  1  0
 76 77  1  0
 77 78  2  0
 77 79  1  0
 81 80  1  0
 82 81  1  0
 81 84  1  6
 82 83  2  0
 88 82  1  0
 84 85  1  0
 85 86  1  1
 85 87  1  0
 89 88  1  0
 90 89  1  0
 89 92  1  1
 90 91  2  0
100 90  1  0
 92 93  1  0
 93 94  1  6
 93 95  1  0
 97 96  2  0
 98 97  1  0
 97105  1  0
 98 99  1  1
 98100  1  0
 98101  1  0
101102  1  0
102103  1  0
103104  1  0
105106  1  0
106107  1  0
106109  1  6
107108  2  0
107116  1  0
109110  1  0
110111  2  0
110112  1  0
111113  1  0
112114  2  0
113115  2  0
114115  1  0
 32117  1  0
 60118  1  0
M  CHG  2  12   1  21   1
M  END
$$$$
