
     RDKit          3D

118120  0  0  0  0  0  0  0  0999 V2000
    2.7376    1.9395   15.7690 C   0  0  0  0  0  0  0  0  0  0  0  0
    2.6258    2.4961   16.8548 O   0  0  0  0  0  0  0  0  0  0  0  0
    3.4882    0.6510   15.5863 C   0  0  0  0  0  0  0  0  0  0  0  0
    2.1957    2.4498   14.6138 N   0  0  0  0  0  0  0  0  0  0  0  0
    2.1767    3.8863   14.3293 C   0  0  2  0  0  0  0  0  0  0  0  0
    1.3177    4.0433   13.0575 C   0  0  0  0  0  0  0  0  0  0  0  0
    1.5489    3.3850   12.0400 O   0  0  0  0  0  0  0  0  0  0  0  0
    3.6072    4.4322   14.1517 C   0  0  0  0  0  0  0  0  0  0  0  0
    3.5982    5.8246   13.5011 C   0  0  0  0  0  0  0  0  0  0  0  0
    3.7178    7.0089   14.4577 C   0  0  0  0  0  0  0  0  0  0  0  0
    5.1501    7.4926   14.6366 C   0  0  0  0  0  0  0  0  0  0  0  0
    5.6881    7.8939   13.3162 N   0  0  0  0  0  4  0  0  0  0  0  0
    0.2792    4.9535   13.1247 N   0  0  0  0  0  0  0  0  0  0  0  0
   -0.6085    5.0577   11.9683 C   0  0  2  0  0  0  0  0  0  0  0  0
   -0.8107    6.5548   11.6626 C   0  0  0  0  0  0  0  0  0  0  0  0
   -0.6484    7.4301   12.5091 O   0  0  0  0  0  0  0  0  0  0  0  0
   -1.9734    4.3905   12.1880 C   0  0  0  0  0  0  0  0  0  0  0  0
   -2.7791    4.2844   10.8873 C   0  0  0  0  0  0  0  0  0  0  0  0
   -3.3662    5.6264   10.4188 C   0  0  0  0  0  0  0  0  0  0  0  0
   -4.7254    5.9371   11.0421 C   0  0  0  0  0  0  0  0  0  0  0  0
   -5.2711    7.1774   10.4363 N   0  0  0  0  0  4  0  0  0  0  0  0
   -1.2152    6.7971   10.3691 N   0  0  0  0  0  0  0  0  0  0  0  0
   -0.7894    7.9744    9.6330 C   0  0  2  0  0  0  0  0  0  0  0  0
   -1.1805    7.8638    8.1463 C   0  0  0  0  0  0  0  0  0  0  0  0
   -0.3568    7.9085    7.2319 O   0  0  0  0  0  0  0  0  0  0  0  0
    0.7226    8.1882    9.7684 C   0  0  0  0  0  0  0  0  0  0  0  0
    1.2967    9.3920    9.0128 C   0  0  0  0  0  0  0  0  0  0  0  0
    1.1814    9.1720    7.5035 C   0  0  0  0  0  0  0  0  0  0  0  0
    1.6813   10.3131    6.7631 N   0  0  0  0  0  0  0  0  0  0  0  0
    0.9821   10.9263    5.7843 C   0  0  0  0  0  0  0  0  0  0  0  0
    0.5764   10.0492    4.8461 N   0  0  0  0  0  0  0  0  0  0  0  0
    0.7459   12.1855    5.7243 N   0  0  0  0  0  0  0  0  0  0  0  0
   -2.5423    7.7840    7.9524 N   0  0  0  0  0  0  0  0  0  0  0  0
   -3.1553    7.6089    6.6322 C   0  0  2  0  0  0  0  0  0  0  0  0
   -3.6589    8.9697    6.0929 C   0  0  0  0  0  0  0  0  0  0  0  0
   -3.9014    9.9409    6.8024 O   0  0  0  0  0  0  0  0  0  0  0  0
   -4.2379    6.5131    6.5790 C   0  0  0  0  0  0  0  0  0  0  0  0
   -3.8237    5.1531    7.0937 C   0  0  0  0  0  0  0  0  0  0  0  0
   -3.1627    4.2472    6.2538 C   0  0  0  0  0  0  0  0  0  0  0  0
   -4.0549    4.7939    8.4314 C   0  0  0  0  0  0  0  0  0  0  0  0
   -2.7381    3.0052    6.7350 C   0  0  0  0  0  0  0  0  0  0  0  0
   -3.6248    3.5564    8.9116 C   0  0  0  0  0  0  0  0  0  0  0  0
   -2.9740    2.6717    8.0616 C   0  0  0  0  0  0  0  0  0  0  0  0
   -2.5627    1.4756    8.5754 O   0  0  0  0  0  0  0  0  0  0  0  0
   -3.9256    8.9804    4.7388 N   0  0  0  0  0  0  0  0  0  0  0  0
   -4.4609   10.1552    4.0514 C   0  0  2  0  0  0  0  0  0  0  0  0
   -5.9181    9.8556    3.6359 C   0  0  0  0  0  0  0  0  0  0  0  0
   -6.7705    9.4881    4.4430 O   0  0  0  0  0  0  0  0  0  0  0  0
   -3.6078   10.4987    2.8116 C   0  0  0  0  0  0  0  0  0  0  0  0
   -3.5672    9.4319    1.8558 O   0  0  0  0  0  0  0  0  0  0  0  0
   -6.1717   10.0107    2.2889 N   0  0  0  0  0  0  0  0  0  0  0  0
   -7.5107    9.8592    1.7167 C   0  0  2  0  0  0  0  0  0  0  0  0
   -8.5341    9.3496    2.7692 C   0  0  0  0  0  0  0  0  0  0  0  0
   -8.3555    9.4872    3.9753 O   0  0  0  0  0  0  0  0  0  0  0  0
   -7.5056    8.8679    0.5454 C   0  0  0  0  0  0  0  0  0  0  0  0
   -8.5199    7.7333    0.7020 C   0  0  0  0  0  0  0  0  0  0  0  0
   -7.9132    6.3998    0.2653 C   0  0  0  0  0  0  0  0  0  0  0  0
   -8.4290    5.3056    1.0648 N   0  0  0  0  0  0  0  0  0  0  0  0
   -8.5542    4.0498    0.5851 C   0  0  0  0  0  0  0  0  0  0  0  0
   -7.6135    3.1845    0.5270 N   0  0  0  0  0  0  0  0  0  0  0  0
   -9.8088    3.8139    0.1454 N   0  0  0  0  0  0  0  0  0  0  0  0
  -10.5297    7.6164   -0.9978 O   0  0  0  0  0  0  0  0  0  0  0  0
  -10.7522    7.7803    0.2026 C   0  0  0  0  0  0  0  0  0  0  0  0
   -9.6414    7.6100    1.2959 C   0  0  2  0  0  0  0  0  0  0  0  0
   -9.9709    6.3625    2.1351 C   0  0  0  0  0  0  0  0  0  0  0  0
   -9.6649    8.7487    2.2462 N   0  0  0  0  0  0  0  0  0  0  0  0
   -8.2211    7.4959    0.6487 C   0  0  0  0  0  0  0  0  0  0  0  0
   -7.6552    6.0927    0.3089 C   0  0  0  0  0  0  0  0  0  0  0  0
   -7.6300    5.6803   -1.1693 C   0  0  0  0  0  0  0  0  0  0  0  0
   -8.9576    5.3285   -1.7652 C   0  0  0  0  0  0  0  0  0  0  0  0
  -12.0626    8.0033    0.4893 N   0  0  0  0  0  0  0  0  0  0  0  0
  -12.7225    8.5219    1.6832 C   0  0  2  0  0  0  0  0  0  0  0  0
  -13.3562    7.4308    2.5790 C   0  0  0  0  0  0  0  0  0  0  0  0
  -13.8780    7.6603    3.6702 O   0  0  0  0  0  0  0  0  0  0  0  0
  -13.8024    9.5249    1.2797 C   0  0  0  0  0  0  0  0  0  0  0  0
  -14.9131    8.9239    0.4131 C   0  0  0  0  0  0  0  0  0  0  0  0
  -15.7409    7.9370    1.2070 C   0  0  0  0  0  0  0  0  0  0  0  0
  -15.8765    7.9760    2.4257 O   0  0  0  0  0  0  0  0  0  0  0  0
  -16.3322    6.9696    0.4563 N   0  0  0  0  0  0  0  0  0  0  0  0
  -13.2666    6.1396    2.1102 N   0  0  0  0  0  0  0  0  0  0  0  0
  -14.5070    5.4814    1.6540 C   0  0  2  0  0  0  0  0  0  0  0  0
  -14.3193    3.9972    2.0825 C   0  0  0  0  0  0  0  0  0  0  0  0
  -13.5015    3.6939    2.9538 O   0  0  0  0  0  0  0  0  0  0  0  0
  -14.7107    5.6930    0.1476 C   0  0  0  0  0  0  0  0  0  0  0  0
  -14.1590    4.5748   -0.7647 C   0  0  1  0  0  0  0  0  0  0  0  0
  -12.6731    4.3082   -0.5288 C   0  0  0  0  0  0  0  0  0  0  0  0
  -14.9552    3.2883   -0.5293 C   0  0  0  0  0  0  0  0  0  0  0  0
  -15.1669    3.0777    1.5127 N   0  0  0  0  0  0  0  0  0  0  0  0
  -14.9879    1.6478    1.7754 C   0  0  2  0  0  0  0  0  0  0  0  0
  -14.9128    1.0387    0.3603 C   0  0  0  0  0  0  0  0  0  0  0  0
  -15.9682    0.8482   -0.2724 O   0  0  0  0  0  0  0  0  0  0  0  0
  -16.2054    1.0454    2.5064 C   0  0  0  0  0  0  0  0  0  0  0  0
  -16.1614    0.9237    4.0422 C   0  0  1  0  0  0  0  0  0  0  0  0
  -14.9686    0.1241    4.5507 C   0  0  0  0  0  0  0  0  0  0  0  0
  -16.2647    2.2734    4.7513 C   0  0  0  0  0  0  0  0  0  0  0  0
  -10.8800   -0.6855   -1.3946 O   0  0  0  0  0  0  0  0  0  0  0  0
  -11.9797   -0.5443   -0.8499 C   0  0  0  0  0  0  0  0  0  0  0  0
  -12.3100    0.7670   -0.0428 C   0  0  2  0  0  0  0  0  0  0  0  0
  -11.9989    0.5279    1.4353 C   0  0  0  0  0  0  0  0  0  0  0  0
  -13.7653    0.9633   -0.3589 N   0  0  0  0  0  0  0  0  0  0  0  0
  -11.5345    1.9550   -0.6808 C   0  0  0  0  0  0  0  0  0  0  0  0
  -10.1402    2.2719   -0.1051 C   0  0  0  0  0  0  0  0  0  0  0  0
   -9.1537    2.8747   -1.1176 C   0  0  0  0  0  0  0  0  0  0  0  0
   -9.6093    4.1548   -1.7471 C   0  0  0  0  0  0  0  0  0  0  0  0
  -12.9504   -1.5138   -0.9103 N   0  0  0  0  0  0  0  0  0  0  0  0
  -14.1943   -1.4158   -0.1333 C   0  0  2  0  0  0  0  0  0  0  0  0
  -15.0090   -2.7057   -0.3186 C   0  0  0  0  0  0  0  0  0  0  0  0
  -16.2252   -2.7203   -0.4644 O   0  0  0  0  0  0  0  0  0  0  0  0
  -15.0445   -0.1682   -0.4484 C   0  0  0  0  0  0  0  0  0  0  0  0
  -15.4759   -0.0269   -1.8938 C   0  0  0  0  0  0  0  0  0  0  0  0
  -16.6357    0.6921   -2.2198 C   0  0  0  0  0  0  0  0  0  0  0  0
  -14.7324   -0.6145   -2.9243 C   0  0  0  0  0  0  0  0  0  0  0  0
  -17.0315    0.8292   -3.5500 C   0  0  0  0  0  0  0  0  0  0  0  0
  -15.1253   -0.4664   -4.2565 C   0  0  0  0  0  0  0  0  0  0  0  0
  -16.2717    0.2563   -4.5666 C   0  0  0  0  0  0  0  0  0  0  0  0
  -14.2788   -3.8676   -0.4194 N   0  0  0  0  0  0  0  0  0  0  0  0
    1.3301   12.6725    6.4062 H   0  0  0  0  0  0  0  0  0  0  0  0
   -6.9293    3.3714    1.2574 H   0  0  0  0  0  0  0  0  0  0  0  0
  1  2  2  0
  1  3  1  0
  4  1  1  0
  5  4  1  0
  6  5  1  0
  5  8  1  6
  6  7  2  0
 13  6  1  0
  8  9  1  0
  9 10  1  0
 10 11  1  0
 11 12  1  0
 14 13  1  0
 15 14  1  0
 14 17  1  1
 15 16  2  0
 22 15  1  0
 17 18  1  0
 18 19  1  0
 19 20  1  0
 20 21  1  0
 23 22  1  0
 24 23  1  0
 23 26  1  6
 24 25  2  0
 33 24  1  0
 26 27  1  0
 27 28  1  0
 28 29  1  0
 29 30  1  0
 30 31  1  0
 30 32  2  0
 34 33  1  0
 35 34  1  0
 34 37  1  1
 35 36  2  0
 45 35  1  0
 37 38  1  0
 38 39  2  0
 38 40  1  0
 39 41  1  0
 40 42  2  0
 41 43  2  0
 42 43  1  0
 43 44  1  0
 46 45  1  0
 47 46  1  0
 46 49  1  6
 47 48  2  0
 51 47  1  0
 49 50  1  0
 52 51  1  0
 53 52  1  0
 52 55  1  6
 53 54  2  0
 66 53  1  0
 55 56  1  0
 56 57  1  0
 57 58  1  0
 58 59  1  0
 59 60  2  0
 59 61  1  0
 63 62  2  0
 63 64  1  0
 71 63  1  0
 64 65  1  1
 64 66  1  0
 64 67  1  0
 67 68  1  0
 68 69  1  0
 69 70  1  0
 70104  2  0
 72 71  1  0
 73 72  1  0
 72 75  1  6
 73 74  2  0
 80 73  1  0
 75 76  1  0
 76 77  1  0
 77 78  2  0
 77 79  1  0
 81 80  1  0
 82 81  1  0
 81 84  1  6
 82 83  2  0
 88 82  1  0
 84 85  1  0
 85 86  1  1
 85 87  1  0
 89 88  1  0
 90 89  1  0
 89 92  1  1
 90 91  2  0
100 90  1  0
 92 93  1  0
 93 94  1  6
 93 95  1  0
 97 96  2  0
 98 97  1  0
 97105  1  0
 98 99  1  1
 98100  1  0
 98101  1  0
101102  1  0
102103  1  0
103104  1  0
105106  1  0
106107  1  0
106109  1  6
107108  2  0
107116  1  0
109110  1  0
110111  2  0
110112  1  0
111113  1  0
112114  2  0
113115  2  0
114115  1  0
 32117  1  0
 60118  1  0
M  CHG  2  12   1  21   1
M  END
$$$$
