
     RDKit          3D

118120  0  0  0  0  0  0  0  0999 V2000
    3.4416   10.1177    5.3163 C   0  0  0  0  0  0  0  0  0  0  0  0
    2.5320   10.7747    4.8240 O   0  0  0  0  0  0  0  0  0  0  0  0
    4.3825    9.2833    4.4945 C   0  0  0  0  0  0  0  0  0  0  0  0
    3.6779   10.0740    6.6694 N   0  0  0  0  0  0  0  0  0  0  0  0
    4.7483    9.2592    7.2484 C   0  0  2  0  0  0  0  0  0  0  0  0
    4.1249    7.8683    7.4861 C   0  0  0  0  0  0  0  0  0  0  0  0
    4.0982    7.0148    6.5955 O   0  0  0  0  0  0  0  0  0  0  0  0
    5.2884    9.8978    8.5432 C   0  0  0  0  0  0  0  0  0  0  0  0
    6.5109    9.1342    9.0763 C   0  0  0  0  0  0  0  0  0  0  0  0
    6.6746    9.1128   10.5944 C   0  0  0  0  0  0  0  0  0  0  0  0
    7.3006   10.3855   11.1478 C   0  0  0  0  0  0  0  0  0  0  0  0
    7.2198   10.3546   12.6264 N   0  0  0  0  0  4  0  0  0  0  0  0
    3.6062    7.6333    8.7460 N   0  0  0  0  0  0  0  0  0  0  0  0
    2.9614    6.3437    8.9854 C   0  0  2  0  0  0  0  0  0  0  0  0
    1.4400    6.5824    9.0506 C   0  0  0  0  0  0  0  0  0  0  0  0
    0.6304    5.6637    9.1482 O   0  0  0  0  0  0  0  0  0  0  0  0
    3.4291    5.6613   10.2783 C   0  0  0  0  0  0  0  0  0  0  0  0
    3.6675    4.1588   10.0833 C   0  0  0  0  0  0  0  0  0  0  0  0
    3.7091    3.7315    8.6066 C   0  0  0  0  0  0  0  0  0  0  0  0
    2.3274    3.4283    8.0304 C   0  0  0  0  0  0  0  0  0  0  0  0
    2.4796    2.8145    6.6876 N   0  0  0  0  0  4  0  0  0  0  0  0
    1.0925    7.9113    8.9586 N   0  0  0  0  0  0  0  0  0  0  0  0
   -0.2398    8.3872    9.2873 C   0  0  2  0  0  0  0  0  0  0  0  0
   -1.2979    7.7254    8.3831 C   0  0  0  0  0  0  0  0  0  0  0  0
   -2.2378    8.3470    7.8862 O   0  0  0  0  0  0  0  0  0  0  0  0
   -0.3212    9.9135    9.1682 C   0  0  0  0  0  0  0  0  0  0  0  0
   -1.6923   10.5334    9.4605 C   0  0  0  0  0  0  0  0  0  0  0  0
   -2.3487    9.8273   10.6480 C   0  0  0  0  0  0  0  0  0  0  0  0
   -2.0834   10.5246   11.8904 N   0  0  0  0  0  0  0  0  0  0  0  0
   -1.4240    9.9666   12.9281 C   0  0  0  0  0  0  0  0  0  0  0  0
   -0.1490   10.3962   12.9889 N   0  0  0  0  0  0  0  0  0  0  0  0
   -1.9230    9.1146   13.7467 N   0  0  0  0  0  0  0  0  0  0  0  0
   -1.1204    6.3652    8.2532 N   0  0  0  0  0  0  0  0  0  0  0  0
   -2.0393    5.5047    7.5018 C   0  0  2  0  0  0  0  0  0  0  0  0
   -3.4969    5.9930    7.6840 C   0  0  0  0  0  0  0  0  0  0  0  0
   -4.1013    5.9637    8.7514 O   0  0  0  0  0  0  0  0  0  0  0  0
   -1.8774    4.0002    7.7947 C   0  0  0  0  0  0  0  0  0  0  0  0
   -3.0604    3.1290    7.4371 C   0  0  0  0  0  0  0  0  0  0  0  0
   -4.1609    3.6696    6.7592 C   0  0  0  0  0  0  0  0  0  0  0  0
   -3.0557    1.7576    7.7388 C   0  0  0  0  0  0  0  0  0  0  0  0
   -5.2388    2.8608    6.3869 C   0  0  0  0  0  0  0  0  0  0  0  0
   -4.1295    0.9507    7.3608 C   0  0  0  0  0  0  0  0  0  0  0  0
   -5.2121    1.5070    6.6921 C   0  0  0  0  0  0  0  0  0  0  0  0
   -6.2370    0.6796    6.3335 O   0  0  0  0  0  0  0  0  0  0  0  0
   -4.1197    6.3716    6.5120 N   0  0  0  0  0  0  0  0  0  0  0  0
   -5.5547    6.6441    6.4359 C   0  0  2  0  0  0  0  0  0  0  0  0
   -6.0703    6.1633    5.0615 C   0  0  0  0  0  0  0  0  0  0  0  0
   -5.9417    6.8343    4.0386 O   0  0  0  0  0  0  0  0  0  0  0  0
   -5.8351    8.1510    6.6185 C   0  0  0  0  0  0  0  0  0  0  0  0
   -5.0409    8.9701    5.7516 O   0  0  0  0  0  0  0  0  0  0  0  0
   -6.7036    4.9381    5.0854 N   0  0  0  0  0  0  0  0  0  0  0  0
   -7.2726    4.3218    3.8855 C   0  0  2  0  0  0  0  0  0  0  0  0
   -7.6947    2.8478    4.1382 C   0  0  0  0  0  0  0  0  0  0  0  0
   -7.0238    2.0838    4.8251 O   0  0  0  0  0  0  0  0  0  0  0  0
   -6.2682    4.3325    2.7255 C   0  0  0  0  0  0  0  0  0  0  0  0
   -5.9612    2.9400    2.1713 C   0  0  0  0  0  0  0  0  0  0  0  0
   -6.0087    2.9422    0.6434 C   0  0  0  0  0  0  0  0  0  0  0  0
   -6.4616    1.6624    0.1340 N   0  0  0  0  0  0  0  0  0  0  0  0
   -7.6386    1.5106   -0.5099 C   0  0  0  0  0  0  0  0  0  0  0  0
   -7.9417    0.5287   -1.2722 N   0  0  0  0  0  0  0  0  0  0  0  0
   -8.4691    2.5471   -0.2677 N   0  0  0  0  0  0  0  0  0  0  0  0
  -10.7676    5.3258    2.6240 O   0  0  0  0  0  0  0  0  0  0  0  0
  -10.6597    4.1530    2.9848 C   0  0  0  0  0  0  0  0  0  0  0  0
   -9.5393    3.2030    2.4369 C   0  0  2  0  0  0  0  0  0  0  0  0
  -10.2005    2.1251    1.5595 C   0  0  0  0  0  0  0  0  0  0  0  0
   -8.8872    2.4688    3.5486 N   0  0  0  0  0  0  0  0  0  0  0  0
   -8.4610    4.0024    1.6323 C   0  0  0  0  0  0  0  0  0  0  0  0
   -8.6286    4.1666    0.0995 C   0  0  0  0  0  0  0  0  0  0  0  0
   -9.0712    5.5417   -0.4193 C   0  0  0  0  0  0  0  0  0  0  0  0
  -10.5095    5.8875   -0.1890 C   0  0  0  0  0  0  0  0  0  0  0  0
  -11.6646    3.7387    3.8019 N   0  0  0  0  0  0  0  0  0  0  0  0
  -11.7922    2.5757    4.6743 C   0  0  2  0  0  0  0  0  0  0  0  0
  -12.6438    1.4294    4.0783 C   0  0  0  0  0  0  0  0  0  0  0  0
  -12.7932    0.3350    4.6220 O   0  0  0  0  0  0  0  0  0  0  0  0
  -12.3943    3.0001    6.0130 C   0  0  0  0  0  0  0  0  0  0  0  0
  -12.2758    4.5004    6.2975 C   0  0  0  0  0  0  0  0  0  0  0  0
  -11.6556    5.2239    5.1220 C   0  0  0  0  0  0  0  0  0  0  0  0
  -11.4402    6.4313    5.0929 O   0  0  0  0  0  0  0  0  0  0  0  0
  -11.3551    4.4223    4.0656 N   0  0  0  0  0  0  0  0  0  0  0  0
  -13.2090    1.6760    2.8476 N   0  0  0  0  0  0  0  0  0  0  0  0
  -14.6743    1.8441    2.7800 C   0  0  2  0  0  0  0  0  0  0  0  0
  -15.0605    1.1944    1.4197 C   0  0  0  0  0  0  0  0  0  0  0  0
  -14.2989    0.3995    0.8649 O   0  0  0  0  0  0  0  0  0  0  0  0
  -15.0572    3.3241    2.9155 C   0  0  0  0  0  0  0  0  0  0  0  0
  -13.9083    4.3339    2.6979 C   0  0  1  0  0  0  0  0  0  0  0  0
  -12.5894    3.8582    3.3055 C   0  0  0  0  0  0  0  0  0  0  0  0
  -13.7239    4.5779    1.1976 C   0  0  0  0  0  0  0  0  0  0  0  0
  -16.3133    1.4800    0.9322 N   0  0  0  0  0  0  0  0  0  0  0  0
  -16.7163    1.0005   -0.3918 C   0  0  2  0  0  0  0  0  0  0  0  0
  -17.1867    2.2866   -1.1016 C   0  0  0  0  0  0  0  0  0  0  0  0
  -18.3230    2.7321   -0.8546 O   0  0  0  0  0  0  0  0  0  0  0  0
  -17.9061    0.0223   -0.3064 C   0  0  0  0  0  0  0  0  0  0  0  0
  -17.7792   -1.2210    0.5955 C   0  0  1  0  0  0  0  0  0  0  0  0
  -17.1867   -2.4283   -0.1200 C   0  0  0  0  0  0  0  0  0  0  0  0
  -17.0419   -0.9370    1.9036 C   0  0  0  0  0  0  0  0  0  0  0  0
  -15.8105    2.8404   -4.8883 O   0  0  0  0  0  0  0  0  0  0  0  0
  -15.5122    3.5817   -3.9463 C   0  0  0  0  0  0  0  0  0  0  0  0
  -15.0848    2.9766   -2.5566 C   0  0  2  0  0  0  0  0  0  0  0  0
  -14.6245    1.5337   -2.7676 C   0  0  0  0  0  0  0  0  0  0  0  0
  -16.3466    3.1270   -1.7556 N   0  0  0  0  0  0  0  0  0  0  0  0
  -14.0163    3.9068   -1.9141 C   0  0  0  0  0  0  0  0  0  0  0  0
  -12.5380    3.5834   -2.2074 C   0  0  0  0  0  0  0  0  0  0  0  0
  -11.6068    4.8060   -2.2151 C   0  0  0  0  0  0  0  0  0  0  0  0
  -11.5836    5.5812   -0.9341 C   0  0  0  0  0  0  0  0  0  0  0  0
  -15.5487    4.9499   -4.0585 N   0  0  0  0  0  0  0  0  0  0  0  0
  -15.0614    5.8296   -2.9865 C   0  0  2  0  0  0  0  0  0  0  0  0
  -14.2295    5.0030   -1.9932 C   0  0  0  0  0  0  0  0  0  0  0  0
  -13.4607    5.5004   -1.1795 O   0  0  0  0  0  0  0  0  0  0  0  0
  -16.1680    6.6237   -2.2630 C   0  0  0  0  0  0  0  0  0  0  0  0
  -17.4397    5.8506   -1.9794 C   0  0  0  0  0  0  0  0  0  0  0  0
  -17.3984    4.6752   -1.2144 C   0  0  0  0  0  0  0  0  0  0  0  0
  -18.6716    6.2892   -2.4792 C   0  0  0  0  0  0  0  0  0  0  0  0
  -18.5684    3.9651   -0.9465 C   0  0  0  0  0  0  0  0  0  0  0  0
  -19.8433    5.5819   -2.2001 C   0  0  0  0  0  0  0  0  0  0  0  0
  -19.7898    4.4237   -1.4332 C   0  0  0  0  0  0  0  0  0  0  0  0
  -14.4711    3.6484   -1.9893 N   0  0  0  0  0  0  0  0  0  0  0  0
   -2.7097    8.6384   13.3022 H   0  0  0  0  0  0  0  0  0  0  0  0
   -8.9207    0.2818   -1.1413 H   0  0  0  0  0  0  0  0  0  0  0  0
  1  2  2  0
  1  3  1  0
  4  1  1  0
  5  4  1  0
  6  5  1  0
  5  8  1  1
  6  7  2  0
 13  6  1  0
  8  9  1  0
  9 10  1  0
 10 11  1  0
 11 12  1  0
 14 13  1  0
 15 14  1  0
 14 17  1  1
 15 16  2  0
 22 15  1  0
 17 18  1  0
 18 19  1  0
 19 20  1  0
 20 21  1  0
 23 22  1  0
 24 23  1  0
 23 26  1  6
 24 25  2  0
 33 24  1  0
 26 27  1  0
 27 28  1  0
 28 29  1  0
 29 30  1  0
 30 31  1  0
 30 32  2  0
 34 33  1  0
 35 34  1  0
 34 37  1  1
 35 36  2  0
 45 35  1  0
 37 38  1  0
 38 39  2  0
 38 40  1  0
 39 41  1  0
 40 42  2  0
 41 43  2  0
 42 43  1  0
 43 44  1  0
 46 45  1  0
 47 46  1  0
 46 49  1  6
 47 48  2  0
 51 47  1  0
 49 50  1  0
 52 51  1  0
 53 52  1  0
 52 55  1  6
 53 54  2  0
 66 53  1  0
 55 56  1  0
 56 57  1  0
 57 58  1  0
 58 59  1  0
 59 60  2  0
 59 61  1  0
 63 62  2  0
 63 64  1  0
 71 63  1  0
 64 65  1  6
 64 66  1  0
 64 67  1  0
 67 68  1  0
 68 69  1  0
 69 70  1  0
 70104  2  0
 72 71  1  0
 73 72  1  0
 72 75  1  1
 73 74  2  0
 80 73  1  0
 75 76  1  0
 76 77  1  0
 77 78  2  0
 77 79  1  0
 81 80  1  0
 82 81  1  0
 81 84  1  6
 82 83  2  0
 88 82  1  0
 84 85  1  0
 85 86  1  6
 85 87  1  0
 89 88  1  0
 90 89  1  0
 89 92  1  1
 90 91  2  0
100 90  1  0
 92 93  1  0
 93 94  1  6
 93 95  1  0
 97 96  2  0
 98 97  1  0
 97105  1  0
 98 99  1  6
 98100  1  0
 98101  1  0
101102  1  0
102103  1  0
103104  1  0
105106  1  0
106107  1  0
106109  1  1
107108  2  0
107116  1  0
109110  1  0
110111  2  0
110112  1  0
111113  1  0
112114  2  0
113115  2  0
114115  1  0
 32117  1  0
 60118  1  0
M  CHG  2  12   1  21   1
M  END
$$$$
