
     RDKit          3D

118120  0  0  0  0  0  0  0  0999 V2000
    1.8468    7.0952   12.0925 C   0  0  0  0  0  0  0  0  0  0  0  0
    3.0674    7.0146   12.1635 O   0  0  0  0  0  0  0  0  0  0  0  0
    0.9256    6.0676   12.6862 C   0  0  0  0  0  0  0  0  0  0  0  0
    1.2069    8.1289   11.4518 N   0  0  0  0  0  0  0  0  0  0  0  0
   -0.2521    8.2550   11.4391 C   0  0  2  0  0  0  0  0  0  0  0  0
   -0.7259    7.4386   10.2189 C   0  0  0  0  0  0  0  0  0  0  0  0
   -0.0601    7.3878    9.1814 O   0  0  0  0  0  0  0  0  0  0  0  0
   -0.6771    9.7348   11.3657 C   0  0  0  0  0  0  0  0  0  0  0  0
   -0.5975   10.4092   12.7444 C   0  0  0  0  0  0  0  0  0  0  0  0
    0.8069   10.7346   13.2481 C   0  0  0  0  0  0  0  0  0  0  0  0
    0.8234   11.2710   14.6727 C   0  0  0  0  0  0  0  0  0  0  0  0
    2.2190   11.6007   15.0437 N   0  0  0  0  0  4  0  0  0  0  0  0
   -1.9275    6.7687   10.3555 N   0  0  0  0  0  0  0  0  0  0  0  0
   -2.4206    6.0165    9.2034 C   0  0  2  0  0  0  0  0  0  0  0  0
   -3.0920    7.0155    8.2406 C   0  0  0  0  0  0  0  0  0  0  0  0
   -4.0134    7.7502    8.5872 O   0  0  0  0  0  0  0  0  0  0  0  0
   -3.4218    4.9155    9.5799 C   0  0  0  0  0  0  0  0  0  0  0  0
   -2.7270    3.5792    9.8695 C   0  0  0  0  0  0  0  0  0  0  0  0
   -2.6056    2.6712    8.6343 C   0  0  0  0  0  0  0  0  0  0  0  0
   -2.0274    1.2946    8.9559 C   0  0  0  0  0  0  0  0  0  0  0  0
   -2.2300    0.3936    7.7939 N   0  0  0  0  0  4  0  0  0  0  0  0
   -2.5759    6.9735    6.9649 N   0  0  0  0  0  0  0  0  0  0  0  0
   -3.3809    7.2750    5.7943 C   0  0  2  0  0  0  0  0  0  0  0  0
   -4.6221    6.3635    5.7317 C   0  0  0  0  0  0  0  0  0  0  0  0
   -4.5912    5.1685    6.0280 O   0  0  0  0  0  0  0  0  0  0  0  0
   -2.5550    7.1342    4.5104 C   0  0  0  0  0  0  0  0  0  0  0  0
   -1.1757    6.4854    4.6720 C   0  0  0  0  0  0  0  0  0  0  0  0
   -0.0776    7.5444    4.5600 C   0  0  0  0  0  0  0  0  0  0  0  0
   -0.0062    8.3605    5.7555 N   0  0  0  0  0  0  0  0  0  0  0  0
    1.1561    8.7057    6.3495 C   0  0  0  0  0  0  0  0  0  0  0  0
    1.8773    7.6196    6.6876 N   0  0  0  0  0  0  0  0  0  0  0  0
    1.5317    9.9077    6.5928 N   0  0  0  0  0  0  0  0  0  0  0  0
   -5.7386    7.0070    5.2441 N   0  0  0  0  0  0  0  0  0  0  0  0
   -7.0454    6.3558    5.1112 C   0  0  2  0  0  0  0  0  0  0  0  0
   -7.9985    7.2386    4.2697 C   0  0  0  0  0  0  0  0  0  0  0  0
   -9.2051    7.0404    4.1674 O   0  0  0  0  0  0  0  0  0  0  0  0
   -7.6712    5.9170    6.4497 C   0  0  0  0  0  0  0  0  0  0  0  0
   -6.9684    4.7857    7.1655 C   0  0  0  0  0  0  0  0  0  0  0  0
   -5.9469    4.0686    6.5288 C   0  0  0  0  0  0  0  0  0  0  0  0
   -7.2972    4.4652    8.4925 C   0  0  0  0  0  0  0  0  0  0  0  0
   -5.2631    3.0503    7.1996 C   0  0  0  0  0  0  0  0  0  0  0  0
   -6.6094    3.4528    9.1625 C   0  0  0  0  0  0  0  0  0  0  0  0
   -5.6020    2.7521    8.5122 C   0  0  0  0  0  0  0  0  0  0  0  0
   -4.9494    1.7756    9.2081 O   0  0  0  0  0  0  0  0  0  0  0  0
   -7.3642    8.2227    3.5388 N   0  0  0  0  0  0  0  0  0  0  0  0
   -8.0930    9.1710    2.6970 C   0  0  2  0  0  0  0  0  0  0  0  0
   -9.0757    8.3783    1.8071 C   0  0  0  0  0  0  0  0  0  0  0  0
   -8.9147    7.1866    1.5482 O   0  0  0  0  0  0  0  0  0  0  0  0
   -7.1172    9.9889    1.8244 C   0  0  0  0  0  0  0  0  0  0  0  0
   -7.7840   10.7281    0.7937 O   0  0  0  0  0  0  0  0  0  0  0  0
  -10.1266    9.1225    1.3126 N   0  0  0  0  0  0  0  0  0  0  0  0
  -11.1510    8.5532    0.4353 C   0  0  2  0  0  0  0  0  0  0  0  0
  -11.7758    9.6286   -0.4964 C   0  0  0  0  0  0  0  0  0  0  0  0
  -11.8401   10.8120   -0.1785 O   0  0  0  0  0  0  0  0  0  0  0  0
  -12.2863    7.9156    1.2472 C   0  0  0  0  0  0  0  0  0  0  0  0
  -13.2215    8.9381    1.8957 C   0  0  0  0  0  0  0  0  0  0  0  0
  -13.9306    8.3323    3.1069 C   0  0  0  0  0  0  0  0  0  0  0  0
  -13.4460    8.9180    4.3416 N   0  0  0  0  0  0  0  0  0  0  0  0
  -13.9587    8.5983    5.5491 C   0  0  0  0  0  0  0  0  0  0  0  0
  -15.0475    7.9546    5.7419 N   0  0  0  0  0  0  0  0  0  0  0  0
  -13.1835    9.0642    6.5516 N   0  0  0  0  0  0  0  0  0  0  0  0
  -14.7590    6.7387   -1.1330 O   0  0  0  0  0  0  0  0  0  0  0  0
  -13.7038    7.3110   -0.8570 C   0  0  0  0  0  0  0  0  0  0  0  0
  -12.6783    7.7619   -1.9539 C   0  0  2  0  0  0  0  0  0  0  0  0
  -11.4125    6.8961   -1.8227 C   0  0  0  0  0  0  0  0  0  0  0  0
  -12.2351    9.1568   -1.7129 N   0  0  0  0  0  0  0  0  0  0  0  0
  -13.2944    7.6474   -3.3879 C   0  0  0  0  0  0  0  0  0  0  0  0
  -13.0967    6.3373   -4.1938 C   0  0  0  0  0  0  0  0  0  0  0  0
  -14.3047    5.3996   -4.3247 C   0  0  0  0  0  0  0  0  0  0  0  0
  -14.6621    4.6293   -3.0917 C   0  0  0  0  0  0  0  0  0  0  0  0
  -13.4668    7.4046    0.4788 N   0  0  0  0  0  0  0  0  0  0  0  0
  -12.5339    8.2234    1.2463 C   0  0  2  0  0  0  0  0  0  0  0  0
  -11.2624    7.4705    1.7051 C   0  0  0  0  0  0  0  0  0  0  0  0
  -10.3198    8.0105    2.2846 O   0  0  0  0  0  0  0  0  0  0  0  0
  -13.2423    8.7988    2.4719 C   0  0  0  0  0  0  0  0  0  0  0  0
  -12.3084    9.0746    3.6542 C   0  0  0  0  0  0  0  0  0  0  0  0
  -10.9545    8.4368    3.4311 C   0  0  0  0  0  0  0  0  0  0  0  0
  -10.1954    8.0997    4.3340 O   0  0  0  0  0  0  0  0  0  0  0  0
  -10.6230    8.2683    2.1231 N   0  0  0  0  0  0  0  0  0  0  0  0
  -11.2056    6.1329    1.3846 N   0  0  0  0  0  0  0  0  0  0  0  0
  -11.3208    5.1526    2.4826 C   0  0  2  0  0  0  0  0  0  0  0  0
  -10.3663    4.0007    2.0538 C   0  0  0  0  0  0  0  0  0  0  0  0
   -9.4821    4.1965    1.2174 O   0  0  0  0  0  0  0  0  0  0  0  0
  -12.7832    4.7325    2.6832 C   0  0  0  0  0  0  0  0  0  0  0  0
  -13.6341    4.6400    1.3970 C   0  0  1  0  0  0  0  0  0  0  0  0
  -14.2393    5.9853    0.9988 C   0  0  0  0  0  0  0  0  0  0  0  0
  -12.7679    4.1077    0.2522 C   0  0  0  0  0  0  0  0  0  0  0  0
  -10.5037    2.8052    2.7176 N   0  0  0  0  0  0  0  0  0  0  0  0
   -9.7227    1.6375    2.3028 C   0  0  2  0  0  0  0  0  0  0  0  0
  -10.7995    0.5537    2.0905 C   0  0  0  0  0  0  0  0  0  0  0  0
  -11.2645   -0.0387    3.0822 O   0  0  0  0  0  0  0  0  0  0  0  0
   -8.7643    1.1674    3.4164 C   0  0  0  0  0  0  0  0  0  0  0  0
   -9.3634    0.6076    4.7215 C   0  0  1  0  0  0  0  0  0  0  0  0
   -8.9433    1.3861    5.9616 C   0  0  0  0  0  0  0  0  0  0  0  0
  -10.8816    0.4441    4.6595 C   0  0  0  0  0  0  0  0  0  0  0  0
  -11.3775   -1.0744   -2.3131 O   0  0  0  0  0  0  0  0  0  0  0  0
  -11.4404   -0.8579   -1.0986 C   0  0  0  0  0  0  0  0  0  0  0  0
  -11.1820    0.5875   -0.5294 C   0  0  2  0  0  0  0  0  0  0  0  0
   -9.7399    0.9898   -0.8412 C   0  0  0  0  0  0  0  0  0  0  0  0
  -11.4849    0.4010    0.9300 N   0  0  0  0  0  0  0  0  0  0  0  0
  -12.2589    1.5511   -1.1051 C   0  0  0  0  0  0  0  0  0  0  0  0
  -11.9098    2.2931   -2.4103 C   0  0  0  0  0  0  0  0  0  0  0  0
  -13.1180    2.6168   -3.3031 C   0  0  0  0  0  0  0  0  0  0  0  0
  -14.1682    3.4614   -2.6503 C   0  0  0  0  0  0  0  0  0  0  0  0
  -11.7234   -1.8540   -0.1966 N   0  0  0  0  0  0  0  0  0  0  0  0
  -12.0313   -1.5619    1.2107 C   0  0  2  0  0  0  0  0  0  0  0  0
  -11.5150   -0.1572    1.5600 C   0  0  0  0  0  0  0  0  0  0  0  0
  -11.8158    0.4355    2.5890 O   0  0  0  0  0  0  0  0  0  0  0  0
  -11.5059   -2.6141    2.2083 C   0  0  0  0  0  0  0  0  0  0  0  0
  -10.1905   -3.2642    1.8308 C   0  0  0  0  0  0  0  0  0  0  0  0
  -10.1438   -4.2304    0.8146 C   0  0  0  0  0  0  0  0  0  0  0  0
   -9.0051   -2.9193    2.4910 C   0  0  0  0  0  0  0  0  0  0  0  0
   -8.9333   -4.8257    0.4607 C   0  0  0  0  0  0  0  0  0  0  0  0
   -7.7925   -3.5092    2.1270 C   0  0  0  0  0  0  0  0  0  0  0  0
   -7.7586   -4.4587    1.1121 C   0  0  0  0  0  0  0  0  0  0  0  0
  -10.5926    0.3770    0.6898 N   0  0  0  0  0  0  0  0  0  0  0  0
    0.8552   10.5611    6.1943 H   0  0  0  0  0  0  0  0  0  0  0  0
  -15.3945    7.5934    4.8555 H   0  0  0  0  0  0  0  0  0  0  0  0
  1  2  2  0
  1  3  1  0
  4  1  1  0
  5  4  1  0
  6  5  1  0
  5  8  1  6
  6  7  2  0
 13  6  1  0
  8  9  1  0
  9 10  1  0
 10 11  1  0
 11 12  1  0
 14 13  1  0
 15 14  1  0
 14 17  1  1
 15 16  2  0
 22 15  1  0
 17 18  1  0
 18 19  1  0
 19 20  1  0
 20 21  1  0
 23 22  1  0
 24 23  1  0
 23 26  1  6
 24 25  2  0
 33 24  1  0
 26 27  1  0
 27 28  1  0
 28 29  1  0
 29 30  1  0
 30 31  1  0
 30 32  2  0
 34 33  1  0
 35 34  1  0
 34 37  1  1
 35 36  2  0
 45 35  1  0
 37 38  1  0
 38 39  2  0
 38 40  1  0
 39 41  1  0
 40 42  2  0
 41 43  2  0
 42 43  1  0
 43 44  1  0
 46 45  1  0
 47 46  1  0
 46 49  1  6
 47 48  2  0
 51 47  1  0
 49 50  1  0
 52 51  1  0
 53 52  1  0
 52 55  1  1
 53 54  2  0
 66 53  1  0
 55 56  1  0
 56 57  1  0
 57 58  1  0
 58 59  1  0
 59 60  2  0
 59 61  1  0
 63 62  2  0
 63 64  1  0
 71 63  1  0
 64 65  1  6
 64 66  1  0
 64 67  1  0
 67 68  1  0
 68 69  1  0
 69 70  1  0
 70104  2  0
 72 71  1  0
 73 72  1  0
 72 75  1  1
 73 74  2  0
 80 73  1  0
 75 76  1  0
 76 77  1  0
 77 78  2  0
 77 79  1  0
 81 80  1  0
 82 81  1  0
 81 84  1  6
 82 83  2  0
 88 82  1  0
 84 85  1  0
 85 86  1  6
 85 87  1  0
 89 88  1  0
 90 89  1  0
 89 92  1  1
 90 91  2  0
100 90  1  0
 92 93  1  0
 93 94  1  1
 93 95  1  0
 97 96  2  0
 98 97  1  0
 97105  1  0
 98 99  1  1
 98100  1  0
 98101  1  0
101102  1  0
102103  1  0
103104  1  0
105106  1  0
106107  1  0
106109  1  1
107108  2  0
107116  1  0
109110  1  0
110111  2  0
110112  1  0
111113  1  0
112114  2  0
113115  2  0
114115  1  0
 32117  1  0
 60118  1  0
M  CHG  2  12   1  21   1
M  END
$$$$
