
     RDKit          3D

118120  0  0  0  0  0  0  0  0999 V2000
    2.2197    6.7957   14.3657 C   0  0  0  0  0  0  0  0  0  0  0  0
    3.0499    6.4086   13.5519 O   0  0  0  0  0  0  0  0  0  0  0  0
    1.6944    5.9255   15.4719 C   0  0  0  0  0  0  0  0  0  0  0  0
    1.6828    8.0603   14.3343 N   0  0  0  0  0  0  0  0  0  0  0  0
    0.5024    8.3869   13.5312 C   0  0  2  0  0  0  0  0  0  0  0  0
    0.2356    7.1391   12.6642 C   0  0  0  0  0  0  0  0  0  0  0  0
    1.0420    6.7664   11.8081 O   0  0  0  0  0  0  0  0  0  0  0  0
    0.7422    9.6556   12.6892 C   0  0  0  0  0  0  0  0  0  0  0  0
    0.1882   10.9058   13.3905 C   0  0  0  0  0  0  0  0  0  0  0  0
    1.1403   12.0962   13.4831 C   0  0  0  0  0  0  0  0  0  0  0  0
    1.1255   12.7708   14.8477 C   0  0  0  0  0  0  0  0  0  0  0  0
   -0.0796   13.6264   14.9455 N   0  0  0  0  0  4  0  0  0  0  0  0
   -0.9476    6.4651   12.9033 N   0  0  0  0  0  0  0  0  0  0  0  0
   -1.3910    5.4956   11.9034 C   0  0  2  0  0  0  0  0  0  0  0  0
   -1.9895    6.2800   10.7193 C   0  0  0  0  0  0  0  0  0  0  0  0
   -3.0234    6.9363   10.8162 O   0  0  0  0  0  0  0  0  0  0  0  0
   -2.4321    4.5030   12.4394 C   0  0  0  0  0  0  0  0  0  0  0  0
   -1.8133    3.1375   12.7631 C   0  0  0  0  0  0  0  0  0  0  0  0
   -0.3149    3.0488   12.4287 C   0  0  0  0  0  0  0  0  0  0  0  0
    0.1521    1.6237   12.1394 C   0  0  0  0  0  0  0  0  0  0  0  0
    1.6351    1.5762   12.1770 N   0  0  0  0  0  4  0  0  0  0  0  0
   -1.2685    6.1427    9.5546 N   0  0  0  0  0  0  0  0  0  0  0  0
   -1.7546    6.6416    8.2802 C   0  0  2  0  0  0  0  0  0  0  0  0
   -2.3405    5.4975    7.4299 C   0  0  0  0  0  0  0  0  0  0  0  0
   -1.6412    4.6454    6.8805 O   0  0  0  0  0  0  0  0  0  0  0  0
   -0.6383    7.3561    7.5097 C   0  0  0  0  0  0  0  0  0  0  0  0
    0.0577    8.5019    8.2530 C   0  0  0  0  0  0  0  0  0  0  0  0
    0.6146    9.5179    7.2543 C   0  0  0  0  0  0  0  0  0  0  0  0
    2.0316    9.3149    7.0282 N   0  0  0  0  0  0  0  0  0  0  0  0
    2.8582   10.2853    6.5833 C   0  0  0  0  0  0  0  0  0  0  0  0
    2.2022   11.4486    6.4093 N   0  0  0  0  0  0  0  0  0  0  0  0
    4.1057   10.1320    6.3283 N   0  0  0  0  0  0  0  0  0  0  0  0
   -3.7094    5.5746    7.2935 N   0  0  0  0  0  0  0  0  0  0  0  0
   -4.4360    4.9964    6.1589 C   0  0  2  0  0  0  0  0  0  0  0  0
   -3.7666    5.4149    4.8274 C   0  0  0  0  0  0  0  0  0  0  0  0
   -2.9524    6.3274    4.7265 O   0  0  0  0  0  0  0  0  0  0  0  0
   -5.9521    5.2735    6.1727 C   0  0  0  0  0  0  0  0  0  0  0  0
   -6.8379    4.1067    5.7984 C   0  0  0  0  0  0  0  0  0  0  0  0
   -6.7995    3.5729    4.5036 C   0  0  0  0  0  0  0  0  0  0  0  0
   -7.6790    3.5124    6.7530 C   0  0  0  0  0  0  0  0  0  0  0  0
   -7.5836    2.4667    4.1629 C   0  0  0  0  0  0  0  0  0  0  0  0
   -8.4561    2.4044    6.4129 C   0  0  0  0  0  0  0  0  0  0  0  0
   -8.4055    1.8926    5.1228 C   0  0  0  0  0  0  0  0  0  0  0  0
   -9.1757    0.8026    4.8359 O   0  0  0  0  0  0  0  0  0  0  0  0
   -4.2417    4.7456    3.7179 N   0  0  0  0  0  0  0  0  0  0  0  0
   -3.7222    4.9853    2.3719 C   0  0  2  0  0  0  0  0  0  0  0  0
   -4.6108    4.2244    1.3632 C   0  0  0  0  0  0  0  0  0  0  0  0
   -5.1024    3.1257    1.6170 O   0  0  0  0  0  0  0  0  0  0  0  0
   -2.2566    4.5140    2.2599 C   0  0  0  0  0  0  0  0  0  0  0  0
   -2.0929    3.1317    2.6003 O   0  0  0  0  0  0  0  0  0  0  0  0
   -4.7832    4.8672    0.1550 N   0  0  0  0  0  0  0  0  0  0  0  0
   -5.5189    4.2664   -0.9591 C   0  0  2  0  0  0  0  0  0  0  0  0
   -5.7883    2.7541   -0.7245 C   0  0  0  0  0  0  0  0  0  0  0  0
   -5.0381    2.0524   -0.0534 O   0  0  0  0  0  0  0  0  0  0  0  0
   -4.7456    4.4089   -2.2768 C   0  0  0  0  0  0  0  0  0  0  0  0
   -5.2686    5.5335   -3.1726 C   0  0  0  0  0  0  0  0  0  0  0  0
   -4.3625    5.7231   -4.3891 C   0  0  0  0  0  0  0  0  0  0  0  0
   -3.1807    4.8884   -4.2942 N   0  0  0  0  0  0  0  0  0  0  0  0
   -2.1403    5.0001   -5.1475 C   0  0  0  0  0  0  0  0  0  0  0  0
   -2.1177    5.7399   -6.1912 N   0  0  0  0  0  0  0  0  0  0  0  0
   -1.1118    4.2084   -4.7755 N   0  0  0  0  0  0  0  0  0  0  0  0
   -8.5895    5.3499   -0.7454 O   0  0  0  0  0  0  0  0  0  0  0  0
   -8.3429    4.1728   -0.4791 C   0  0  0  0  0  0  0  0  0  0  0  0
   -8.1486    3.0815   -1.5878 C   0  0  2  0  0  0  0  0  0  0  0  0
   -9.3351    2.1033   -1.5219 C   0  0  0  0  0  0  0  0  0  0  0  0
   -6.9415    2.2649   -1.3111 N   0  0  0  0  0  0  0  0  0  0  0  0
   -8.0294    3.7296   -3.0073 C   0  0  0  0  0  0  0  0  0  0  0  0
   -9.3090    3.9167   -3.8632 C   0  0  0  0  0  0  0  0  0  0  0  0
   -9.8700    5.3394   -3.9929 C   0  0  0  0  0  0  0  0  0  0  0  0
  -10.5614    5.8752   -2.7779 C   0  0  0  0  0  0  0  0  0  0  0  0
   -8.3733    3.8964    0.8520 N   0  0  0  0  0  0  0  0  0  0  0  0
   -7.8764    2.7601    1.6212 C   0  0  2  0  0  0  0  0  0  0  0  0
   -8.9696    1.7395    2.0182 C   0  0  0  0  0  0  0  0  0  0  0  0
   -8.7353    0.6745    2.5896 O   0  0  0  0  0  0  0  0  0  0  0  0
   -7.1784    3.2601    2.8852 C   0  0  0  0  0  0  0  0  0  0  0  0
   -6.1695    4.3843    2.6320 C   0  0  0  0  0  0  0  0  0  0  0  0
   -6.3518    4.9699    1.2487 C   0  0  0  0  0  0  0  0  0  0  0  0
   -6.3547    4.3076    0.2160 O   0  0  0  0  0  0  0  0  0  0  0  0
   -6.5055    6.3208    1.2276 N   0  0  0  0  0  0  0  0  0  0  0  0
  -10.2564    2.0613    1.6501 N   0  0  0  0  0  0  0  0  0  0  0  0
  -11.2108    2.4250    2.7162 C   0  0  2  0  0  0  0  0  0  0  0  0
  -12.5631    1.8348    2.2215 C   0  0  0  0  0  0  0  0  0  0  0  0
  -12.5852    0.9454    1.3682 O   0  0  0  0  0  0  0  0  0  0  0  0
  -11.2182    3.9429    2.9427 C   0  0  0  0  0  0  0  0  0  0  0  0
  -12.4793    4.6860    2.4483 C   0  0  1  0  0  0  0  0  0  0  0  0
  -12.2108    5.5266    1.2009 C   0  0  0  0  0  0  0  0  0  0  0  0
  -13.5853    3.6689    2.1537 C   0  0  0  0  0  0  0  0  0  0  0  0
  -13.7002    2.2869    2.8470 N   0  0  0  0  0  0  0  0  0  0  0  0
  -15.0203    1.8676    2.3705 C   0  0  2  0  0  0  0  0  0  0  0  0
  -15.7546    3.2061    2.1508 C   0  0  0  0  0  0  0  0  0  0  0  0
  -16.2355    3.8001    3.1339 O   0  0  0  0  0  0  0  0  0  0  0  0
  -15.7822    1.0582    3.4401 C   0  0  0  0  0  0  0  0  0  0  0  0
  -15.7444    1.5438    4.9024 C   0  0  1  0  0  0  0  0  0  0  0  0
  -15.4987    3.0413    5.0354 C   0  0  0  0  0  0  0  0  0  0  0  0
  -16.9694    1.1111    5.7070 C   0  0  0  0  0  0  0  0  0  0  0  0
  -16.9237    4.3937   -2.2891 O   0  0  0  0  0  0  0  0  0  0  0  0
  -16.8021    4.2677   -1.0663 C   0  0  0  0  0  0  0  0  0  0  0  0
  -15.5091    3.6089   -0.4547 C   0  0  2  0  0  0  0  0  0  0  0  0
  -15.5086    2.1174   -0.7923 C   0  0  0  0  0  0  0  0  0  0  0  0
  -15.6641    3.9267    1.0052 N   0  0  0  0  0  0  0  0  0  0  0  0
  -14.2626    4.3861   -0.9666 C   0  0  0  0  0  0  0  0  0  0  0  0
  -13.5932    3.8673   -2.2545 C   0  0  0  0  0  0  0  0  0  0  0  0
  -12.9119    4.9535   -3.1016 C   0  0  0  0  0  0  0  0  0  0  0  0
  -11.8374    5.7170   -2.3910 C   0  0  0  0  0  0  0  0  0  0  0  0
  -17.7786    4.6791   -0.1927 N   0  0  0  0  0  0  0  0  0  0  0  0
  -18.0854    3.9325    1.0357 C   0  0  2  0  0  0  0  0  0  0  0  0
  -18.6290    2.5446    0.6613 C   0  0  0  0  0  0  0  0  0  0  0  0
  -19.7797    2.1882    0.8839 O   0  0  0  0  0  0  0  0  0  0  0  0
  -19.0388    4.6633    2.0029 C   0  0  0  0  0  0  0  0  0  0  0  0
  -18.8316    6.1604    2.1082 C   0  0  0  0  0  0  0  0  0  0  0  0
  -19.6120    6.9233    2.9898 C   0  0  0  0  0  0  0  0  0  0  0  0
  -17.8671    6.8071    1.3262 C   0  0  0  0  0  0  0  0  0  0  0  0
  -19.4189    8.3006    3.0934 C   0  0  0  0  0  0  0  0  0  0  0  0
  -17.6685    8.1850    1.4400 C   0  0  0  0  0  0  0  0  0  0  0  0
  -18.4424    8.9280    2.3241 C   0  0  0  0  0  0  0  0  0  0  0  0
  -17.7712    1.7352   -0.0476 N   0  0  0  0  0  0  0  0  0  0  0  0
    4.4838    9.3904    6.9202 H   0  0  0  0  0  0  0  0  0  0  0  0
   -3.0698    5.9423   -6.4894 H   0  0  0  0  0  0  0  0  0  0  0  0
  1  2  2  0
  1  3  1  0
  4  1  1  0
  5  4  1  0
  6  5  1  0
  5  8  1  6
  6  7  2  0
 13  6  1  0
  8  9  1  0
  9 10  1  0
 10 11  1  0
 11 12  1  0
 14 13  1  0
 15 14  1  0
 14 17  1  1
 15 16  2  0
 22 15  1  0
 17 18  1  0
 18 19  1  0
 19 20  1  0
 20 21  1  0
 23 22  1  0
 24 23  1  0
 23 26  1  6
 24 25  2  0
 33 24  1  0
 26 27  1  0
 27 28  1  0
 28 29  1  0
 29 30  1  0
 30 31  1  0
 30 32  2  0
 34 33  1  0
 35 34  1  0
 34 37  1  6
 35 36  2  0
 45 35  1  0
 37 38  1  0
 38 39  2  0
 38 40  1  0
 39 41  1  0
 40 42  2  0
 41 43  2  0
 42 43  1  0
 43 44  1  0
 46 45  1  0
 47 46  1  0
 46 49  1  1
 47 48  2  0
 51 47  1  0
 49 50  1  0
 52 51  1  0
 53 52  1  0
 52 55  1  6
 53 54  2  0
 66 53  1  0
 55 56  1  0
 56 57  1  0
 57 58  1  0
 58 59  1  0
 59 60  2  0
 59 61  1  0
 63 62  2  0
 63 64  1  0
 71 63  1  0
 64 65  1  6
 64 66  1  0
 64 67  1  0
 67 68  1  0
 68 69  1  0
 69 70  1  0
 70104  2  0
 72 71  1  0
 73 72  1  0
 72 75  1  1
 73 74  2  0
 80 73  1  0
 75 76  1  0
 76 77  1  0
 77 78  2  0
 77 79  1  0
 81 80  1  0
 82 81  1  0
 81 84  1  6
 82 83  2  0
 88 82  1  0
 84 85  1  0
 85 86  1  6
 85 87  1  0
 89 88  1  0
 90 89  1  0
 89 92  1  1
 90 91  2  0
100 90  1  0
 92 93  1  0
 93 94  1  6
 93 95  1  0
 97 96  2  0
 98 97  1  0
 97105  1  0
 98 99  1  1
 98100  1  0
 98101  1  0
101102  1  0
102103  1  0
103104  1  0
105106  1  0
106107  1  0
106109  1  6
107108  2  0
107116  1  0
109110  1  0
110111  2  0
110112  1  0
111113  1  0
112114  2  0
113115  2  0
114115  1  0
 32117  1  0
 60118  1  0
M  CHG  2  12   1  21   1
M  END
$$$$
