
     RDKit          3D

118120  0  0  0  0  0  0  0  0999 V2000
    1.9010    3.1166    8.7119 C   0  0  0  0  0  0  0  0  0  0  0  0
    2.9356    2.9423    9.3449 O   0  0  0  0  0  0  0  0  0  0  0  0
    1.2796    2.0507    7.8549 C   0  0  0  0  0  0  0  0  0  0  0  0
    1.2189    4.3096    8.7183 N   0  0  0  0  0  0  0  0  0  0  0  0
   -0.1137    4.4494    8.1270 C   0  0  2  0  0  0  0  0  0  0  0  0
   -0.6119    3.0090    7.8881 C   0  0  0  0  0  0  0  0  0  0  0  0
    0.1318    2.0371    8.0445 O   0  0  0  0  0  0  0  0  0  0  0  0
   -0.0571    5.2816    6.8308 C   0  0  0  0  0  0  0  0  0  0  0  0
    0.7714    4.5740    5.7469 C   0  0  0  0  0  0  0  0  0  0  0  0
    0.1514    4.5354    4.3519 C   0  0  0  0  0  0  0  0  0  0  0  0
   -0.8534    5.6534    4.1113 C   0  0  0  0  0  0  0  0  0  0  0  0
   -2.2080    5.0641    4.0030 N   0  0  0  0  0  4  0  0  0  0  0  0
   -1.9306    2.8709    7.4964 N   0  0  0  0  0  0  0  0  0  0  0  0
   -2.9106    2.5198    8.5223 C   0  0  2  0  0  0  0  0  0  0  0  0
   -4.3037    2.9241    8.0013 C   0  0  0  0  0  0  0  0  0  0  0  0
   -5.0918    2.1121    7.5232 O   0  0  0  0  0  0  0  0  0  0  0  0
   -2.6494    3.2039    9.8714 C   0  0  0  0  0  0  0  0  0  0  0  0
   -1.4919    4.2072    9.7944 C   0  0  0  0  0  0  0  0  0  0  0  0
   -0.1090    3.5412    9.6989 C   0  0  0  0  0  0  0  0  0  0  0  0
    0.5299    3.6800    8.3186 C   0  0  0  0  0  0  0  0  0  0  0  0
    1.7351    2.8168    8.2467 N   0  0  0  0  0  4  0  0  0  0  0  0
   -4.5518    4.2746    8.1007 N   0  0  0  0  0  0  0  0  0  0  0  0
   -5.6108    4.9241    7.3484 C   0  0  2  0  0  0  0  0  0  0  0  0
   -5.0472    5.6151    6.0914 C   0  0  0  0  0  0  0  0  0  0  0  0
   -3.8407    5.7567    5.8889 O   0  0  0  0  0  0  0  0  0  0  0  0
   -6.3590    5.9392    8.2203 C   0  0  0  0  0  0  0  0  0  0  0  0
   -5.4869    6.7938    9.1470 C   0  0  0  0  0  0  0  0  0  0  0  0
   -5.0843    5.9889   10.3838 C   0  0  0  0  0  0  0  0  0  0  0  0
   -4.5725    6.8498   11.4313 N   0  0  0  0  0  0  0  0  0  0  0  0
   -3.7071    6.4306   12.3792 C   0  0  0  0  0  0  0  0  0  0  0  0
   -4.1024    5.2645   12.9251 N   0  0  0  0  0  0  0  0  0  0  0  0
   -2.6519    7.0611   12.7453 N   0  0  0  0  0  0  0  0  0  0  0  0
   -6.0302    6.1154    5.2655 N   0  0  0  0  0  0  0  0  0  0  0  0
   -5.7423    6.8372    4.0224 C   0  0  2  0  0  0  0  0  0  0  0  0
   -6.9562    7.7083    3.6177 C   0  0  0  0  0  0  0  0  0  0  0  0
   -8.1252    7.3760    3.7869 O   0  0  0  0  0  0  0  0  0  0  0  0
   -5.2470    5.9398    2.8713 C   0  0  0  0  0  0  0  0  0  0  0  0
   -4.3479    4.7919    3.2718 C   0  0  0  0  0  0  0  0  0  0  0  0
   -4.8930    3.5418    3.5926 C   0  0  0  0  0  0  0  0  0  0  0  0
   -2.9524    4.9477    3.2857 C   0  0  0  0  0  0  0  0  0  0  0  0
   -4.0652    2.4641    3.9213 C   0  0  0  0  0  0  0  0  0  0  0  0
   -2.1276    3.8694    3.6079 C   0  0  0  0  0  0  0  0  0  0  0  0
   -2.6883    2.6392    3.9257 C   0  0  0  0  0  0  0  0  0  0  0  0
   -1.8441    1.6094    4.2264 O   0  0  0  0  0  0  0  0  0  0  0  0
   -6.6253    8.8637    2.9392 N   0  0  0  0  0  0  0  0  0  0  0  0
   -7.5616    9.5494    2.0492 C   0  0  2  0  0  0  0  0  0  0  0  0
   -7.6134    8.7812    0.7101 C   0  0  0  0  0  0  0  0  0  0  0  0
   -6.6426    8.7014   -0.0410 O   0  0  0  0  0  0  0  0  0  0  0  0
   -7.1221   11.0104    1.8146 C   0  0  0  0  0  0  0  0  0  0  0  0
   -8.0396   11.7378    0.9884 O   0  0  0  0  0  0  0  0  0  0  0  0
   -8.8392    8.2186    0.4211 N   0  0  0  0  0  0  0  0  0  0  0  0
   -9.2934    7.9810   -0.9503 C   0  0  2  0  0  0  0  0  0  0  0  0
  -10.0780    9.1966   -1.5174 C   0  0  0  0  0  0  0  0  0  0  0  0
   -9.6081   10.3300   -1.5305 O   0  0  0  0  0  0  0  0  0  0  0  0
  -10.2083    6.7515   -1.0276 C   0  0  0  0  0  0  0  0  0  0  0  0
   -9.5016    5.4418   -0.6730 C   0  0  0  0  0  0  0  0  0  0  0  0
   -9.5946    5.1649    0.8275 C   0  0  0  0  0  0  0  0  0  0  0  0
   -9.4237    6.3836    1.5943 N   0  0  0  0  0  0  0  0  0  0  0  0
   -9.7039    6.4592    2.9129 C   0  0  0  0  0  0  0  0  0  0  0  0
   -9.8741    5.4572    3.6901 N   0  0  0  0  0  0  0  0  0  0  0  0
   -9.8062    7.7420    3.3214 N   0  0  0  0  0  0  0  0  0  0  0  0
  -13.8962    7.7588    0.1407 O   0  0  0  0  0  0  0  0  0  0  0  0
  -12.7173    7.9675   -0.1490 C   0  0  0  0  0  0  0  0  0  0  0  0
  -12.1528    7.7431   -1.5943 C   0  0  2  0  0  0  0  0  0  0  0  0
  -11.1887    6.5437   -1.5601 C   0  0  0  0  0  0  0  0  0  0  0  0
  -11.3325    8.9031   -2.0208 N   0  0  0  0  0  0  0  0  0  0  0  0
  -13.3075    7.5099   -2.6246 C   0  0  0  0  0  0  0  0  0  0  0  0
  -13.7725    6.0613   -2.9245 C   0  0  0  0  0  0  0  0  0  0  0  0
  -15.1138    5.6125   -2.3285 C   0  0  0  0  0  0  0  0  0  0  0  0
  -15.1097    5.3443   -0.8555 C   0  0  0  0  0  0  0  0  0  0  0  0
  -11.9419    8.2926    0.9198 N   0  0  0  0  0  0  0  0  0  0  0  0
  -10.6121    8.8868    1.0121 C   0  0  2  0  0  0  0  0  0  0  0  0
   -9.4827    7.8669    1.2925 C   0  0  0  0  0  0  0  0  0  0  0  0
   -8.2872    8.1602    1.3164 O   0  0  0  0  0  0  0  0  0  0  0  0
  -10.6008    9.9559    2.1037 C   0  0  0  0  0  0  0  0  0  0  0  0
  -10.9519   11.3591    1.6000 C   0  0  0  0  0  0  0  0  0  0  0  0
  -11.7698   11.2858    0.3290 C   0  0  0  0  0  0  0  0  0  0  0  0
  -11.3144   11.4753   -0.7943 O   0  0  0  0  0  0  0  0  0  0  0  0
  -13.0844   10.9981    0.5242 N   0  0  0  0  0  0  0  0  0  0  0  0
   -9.8809    6.5616    1.4733 N   0  0  0  0  0  0  0  0  0  0  0  0
   -9.7679    5.9849    2.8277 C   0  0  2  0  0  0  0  0  0  0  0  0
   -9.3745    4.5017    2.5684 C   0  0  0  0  0  0  0  0  0  0  0  0
   -8.8890    4.1608    1.4877 O   0  0  0  0  0  0  0  0  0  0  0  0
  -11.0756    6.1743    3.6085 C   0  0  0  0  0  0  0  0  0  0  0  0
  -11.2588    5.2561    4.8374 C   0  0  1  0  0  0  0  0  0  0  0  0
  -10.2360    4.1217    4.8768 C   0  0  0  0  0  0  0  0  0  0  0  0
  -11.1492    6.0910    6.1161 C   0  0  0  0  0  0  0  0  0  0  0  0
   -9.5091    3.6331    3.6248 N   0  0  0  0  0  0  0  0  0  0  0  0
   -9.2668    2.2008    3.4372 C   0  0  2  0  0  0  0  0  0  0  0  0
  -10.5602    1.5537    3.9734 C   0  0  0  0  0  0  0  0  0  0  0  0
  -10.7069    1.4255    5.2033 O   0  0  0  0  0  0  0  0  0  0  0  0
   -8.0796    1.7068    4.2893 C   0  0  0  0  0  0  0  0  0  0  0  0
   -7.4043    2.6940    5.2614 C   0  0  1  0  0  0  0  0  0  0  0  0
   -7.2728    4.1028    4.6969 C   0  0  0  0  0  0  0  0  0  0  0  0
   -8.0561    2.7110    6.6435 C   0  0  0  0  0  0  0  0  0  0  0  0
  -12.9584   -0.9547    0.8644 O   0  0  0  0  0  0  0  0  0  0  0  0
  -12.7598   -0.2682    1.8720 C   0  0  0  0  0  0  0  0  0  0  0  0
  -11.9568    1.0829    1.7736 C   0  0  2  0  0  0  0  0  0  0  0  0
  -10.7166    0.8576    0.9077 C   0  0  0  0  0  0  0  0  0  0  0  0
  -11.6736    1.3773    3.2191 N   0  0  0  0  0  0  0  0  0  0  0  0
  -12.9121    2.1953    1.2543 C   0  0  0  0  0  0  0  0  0  0  0  0
  -12.9597    2.4234   -0.2693 C   0  0  0  0  0  0  0  0  0  0  0  0
  -14.3121    2.9278   -0.7971 C   0  0  0  0  0  0  0  0  0  0  0  0
  -14.7716    4.2221   -0.2004 C   0  0  0  0  0  0  0  0  0  0  0  0
  -13.2125   -0.6486    3.1114 N   0  0  0  0  0  0  0  0  0  0  0  0
  -12.7376   -0.0020    4.3431 C   0  0  2  0  0  0  0  0  0  0  0  0
  -12.9330    1.5177    4.2238 C   0  0  0  0  0  0  0  0  0  0  0  0
  -12.0869    2.2722    3.7596 O   0  0  0  0  0  0  0  0  0  0  0  0
  -11.2844   -0.3501    4.7245 C   0  0  0  0  0  0  0  0  0  0  0  0
  -10.4975   -1.0944    3.6651 C   0  0  0  0  0  0  0  0  0  0  0  0
   -9.2019   -1.5574    3.9397 C   0  0  0  0  0  0  0  0  0  0  0  0
  -11.0438   -1.3259    2.3972 C   0  0  0  0  0  0  0  0  0  0  0  0
   -8.4779   -2.2484    2.9685 C   0  0  0  0  0  0  0  0  0  0  0  0
  -10.3206   -2.0278    1.4301 C   0  0  0  0  0  0  0  0  0  0  0  0
   -9.0412   -2.4891    1.7181 C   0  0  0  0  0  0  0  0  0  0  0  0
  -14.1753    1.9927    4.5763 N   0  0  0  0  0  0  0  0  0  0  0  0
   -2.9090    7.7977   13.4045 H   0  0  0  0  0  0  0  0  0  0  0  0
   -9.4814    4.6206    3.2629 H   0  0  0  0  0  0  0  0  0  0  0  0
  1  2  2  0
  1  3  1  0
  4  1  1  0
  5  4  1  0
  6  5  1  0
  5  8  1  6
  6  7  2  0
 13  6  1  0
  8  9  1  0
  9 10  1  0
 10 11  1  0
 11 12  1  0
 14 13  1  0
 15 14  1  0
 14 17  1  1
 15 16  2  0
 22 15  1  0
 17 18  1  0
 18 19  1  0
 19 20  1  0
 20 21  1  0
 23 22  1  0
 24 23  1  0
 23 26  1  1
 24 25  2  0
 33 24  1  0
 26 27  1  0
 27 28  1  0
 28 29  1  0
 29 30  1  0
 30 31  1  0
 30 32  2  0
 34 33  1  0
 35 34  1  0
 34 37  1  6
 35 36  2  0
 45 35  1  0
 37 38  1  0
 38 39  2  0
 38 40  1  0
 39 41  1  0
 40 42  2  0
 41 43  2  0
 42 43  1  0
 43 44  1  0
 46 45  1  0
 47 46  1  0
 46 49  1  6
 47 48  2  0
 51 47  1  0
 49 50  1  0
 52 51  1  0
 53 52  1  0
 52 55  1  1
 53 54  2  0
 66 53  1  0
 55 56  1  0
 56 57  1  0
 57 58  1  0
 58 59  1  0
 59 60  2  0
 59 61  1  0
 63 62  2  0
 63 64  1  0
 71 63  1  0
 64 65  1  1
 64 66  1  0
 64 67  1  0
 67 68  1  0
 68 69  1  0
 69 70  1  0
 70104  2  0
 72 71  1  0
 73 72  1  0
 72 75  1  1
 73 74  2  0
 80 73  1  0
 75 76  1  0
 76 77  1  0
 77 78  2  0
 77 79  1  0
 81 80  1  0
 82 81  1  0
 81 84  1  6
 82 83  2  0
 88 82  1  0
 84 85  1  0
 85 86  1  1
 85 87  1  0
 89 88  1  0
 90 89  1  0
 89 92  1  1
 90 91  2  0
100 90  1  0
 92 93  1  0
 93 94  1  6
 93 95  1  0
 97 96  2  0
 98 97  1  0
 97105  1  0
 98 99  1  6
 98100  1  0
 98101  1  0
101102  1  0
102103  1  0
103104  1  0
105106  1  0
106107  1  0
106109  1  6
107108  2  0
107116  1  0
109110  1  0
110111  2  0
110112  1  0
111113  1  0
112114  2  0
113115  2  0
114115  1  0
 32117  1  0
 60118  1  0
M  CHG  2  12   1  21   1
M  END
$$$$
