
     RDKit          3D

118120  0  0  0  0  0  0  0  0999 V2000
    1.9083    3.9129   12.7720 C   0  0  0  0  0  0  0  0  0  0  0  0
    0.7898    3.5940   13.1577 O   0  0  0  0  0  0  0  0  0  0  0  0
    2.7346    4.9686   13.4499 C   0  0  0  0  0  0  0  0  0  0  0  0
    2.5061    3.3416   11.6745 N   0  0  0  0  0  0  0  0  0  0  0  0
    3.4568    4.0734   10.8346 C   0  0  2  0  0  0  0  0  0  0  0  0
    2.5941    4.9447    9.8984 C   0  0  0  0  0  0  0  0  0  0  0  0
    2.9676    6.0632    9.5356 O   0  0  0  0  0  0  0  0  0  0  0  0
    4.3741    3.1024   10.0653 C   0  0  0  0  0  0  0  0  0  0  0  0
    5.2788    3.8528    9.0752 C   0  0  0  0  0  0  0  0  0  0  0  0
    6.2706    4.8369    9.6915 C   0  0  0  0  0  0  0  0  0  0  0  0
    7.4409    4.1534   10.3848 C   0  0  0  0  0  0  0  0  0  0  0  0
    7.8840    4.9967   11.5189 N   0  0  0  0  0  4  0  0  0  0  0  0
    1.3901    4.4023    9.4888 N   0  0  0  0  0  0  0  0  0  0  0  0
    0.5894    5.1683    8.5357 C   0  0  2  0  0  0  0  0  0  0  0  0
   -0.5330    5.8733    9.3224 C   0  0  0  0  0  0  0  0  0  0  0  0
   -0.6937    5.7150   10.5300 O   0  0  0  0  0  0  0  0  0  0  0  0
   -0.0267    4.3038    7.4270 C   0  0  0  0  0  0  0  0  0  0  0  0
   -0.8731    5.1329    6.4530 C   0  0  0  0  0  0  0  0  0  0  0  0
   -1.4947    4.3003    5.3193 C   0  0  0  0  0  0  0  0  0  0  0  0
   -1.3662    4.9621    3.9488 C   0  0  0  0  0  0  0  0  0  0  0  0
   -2.4383    4.4547    3.0564 N   0  0  0  0  0  4  0  0  0  0  0  0
   -1.3396    6.6615    8.5328 N   0  0  0  0  0  0  0  0  0  0  0  0
   -2.6845    7.0368    8.9323 C   0  0  2  0  0  0  0  0  0  0  0  0
   -3.7015    5.9537    8.5228 C   0  0  0  0  0  0  0  0  0  0  0  0
   -3.4059    4.7627    8.4175 O   0  0  0  0  0  0  0  0  0  0  0  0
   -3.0785    8.3892    8.3272 C   0  0  0  0  0  0  0  0  0  0  0  0
   -2.3397    9.6107    8.8856 C   0  0  0  0  0  0  0  0  0  0  0  0
   -0.9938    9.7822    8.1794 C   0  0  0  0  0  0  0  0  0  0  0  0
   -0.3573   11.0303    8.5502 N   0  0  0  0  0  0  0  0  0  0  0  0
    0.7171   11.5348    7.9068 C   0  0  0  0  0  0  0  0  0  0  0  0
    1.2776   10.6196    7.0931 N   0  0  0  0  0  0  0  0  0  0  0  0
    1.1764   12.7228    8.0574 N   0  0  0  0  0  0  0  0  0  0  0  0
   -4.9435    6.4681    8.2203 N   0  0  0  0  0  0  0  0  0  0  0  0
   -6.0488    5.6491    7.7135 C   0  0  2  0  0  0  0  0  0  0  0  0
   -6.8294    6.4221    6.6230 C   0  0  0  0  0  0  0  0  0  0  0  0
   -7.4826    7.4384    6.8380 O   0  0  0  0  0  0  0  0  0  0  0  0
   -6.9696    5.0820    8.8117 C   0  0  0  0  0  0  0  0  0  0  0  0
   -8.0417    4.1246    8.3422 C   0  0  0  0  0  0  0  0  0  0  0  0
   -7.7015    2.8400    7.8984 C   0  0  0  0  0  0  0  0  0  0  0  0
   -9.3965    4.4913    8.3851 C   0  0  0  0  0  0  0  0  0  0  0  0
   -8.6910    1.9345    7.5042 C   0  0  0  0  0  0  0  0  0  0  0  0
  -10.3832    3.5841    7.9972 C   0  0  0  0  0  0  0  0  0  0  0  0
  -10.0244    2.3165    7.5576 C   0  0  0  0  0  0  0  0  0  0  0  0
  -11.0224    1.4581    7.1959 O   0  0  0  0  0  0  0  0  0  0  0  0
   -6.8280    5.8136    5.3843 N   0  0  0  0  0  0  0  0  0  0  0  0
   -6.7290    6.5696    4.1362 C   0  0  2  0  0  0  0  0  0  0  0  0
   -7.9317    7.5355    4.0542 C   0  0  0  0  0  0  0  0  0  0  0  0
   -8.9333    7.4007    4.7554 O   0  0  0  0  0  0  0  0  0  0  0  0
   -6.7192    5.6184    2.9205 C   0  0  0  0  0  0  0  0  0  0  0  0
   -7.4306    6.1507    1.7963 O   0  0  0  0  0  0  0  0  0  0  0  0
   -7.7961    8.5386    3.1172 N   0  0  0  0  0  0  0  0  0  0  0  0
   -8.9384    9.2967    2.6036 C   0  0  2  0  0  0  0  0  0  0  0  0
   -8.6116    9.9877    1.2507 C   0  0  0  0  0  0  0  0  0  0  0  0
   -7.5941   10.6532    1.0850 O   0  0  0  0  0  0  0  0  0  0  0  0
   -9.3752   10.3835    3.5949 C   0  0  0  0  0  0  0  0  0  0  0  0
  -10.8241   10.8363    3.4044 C   0  0  0  0  0  0  0  0  0  0  0  0
  -10.8962   12.0429    2.4685 C   0  0  0  0  0  0  0  0  0  0  0  0
  -12.2541   12.5402    2.3627 N   0  0  0  0  0  0  0  0  0  0  0  0
  -12.5885   13.5801    1.5690 C   0  0  0  0  0  0  0  0  0  0  0  0
  -12.2224   14.7929    1.7479 N   0  0  0  0  0  0  0  0  0  0  0  0
  -13.3881   13.1873    0.5544 N   0  0  0  0  0  0  0  0  0  0  0  0
  -12.0367    8.1599    2.1675 O   0  0  0  0  0  0  0  0  0  0  0  0
  -10.8866    8.2855    1.7444 C   0  0  0  0  0  0  0  0  0  0  0  0
  -10.5742    8.7186    0.2704 C   0  0  2  0  0  0  0  0  0  0  0  0
   -9.9531    7.5197   -0.4685 C   0  0  0  0  0  0  0  0  0  0  0  0
   -9.5404    9.7820    0.2464 N   0  0  0  0  0  0  0  0  0  0  0  0
  -11.8638    9.2240   -0.4580 C   0  0  0  0  0  0  0  0  0  0  0  0
  -12.7171    8.2166   -1.2714 C   0  0  0  0  0  0  0  0  0  0  0  0
  -14.0482    7.7613   -0.6576 C   0  0  0  0  0  0  0  0  0  0  0  0
  -13.9383    6.8003    0.4851 C   0  0  0  0  0  0  0  0  0  0  0  0
   -9.9327    7.9023    2.6346 N   0  0  0  0  0  0  0  0  0  0  0  0
   -8.4938    8.1413    2.6816 C   0  0  2  0  0  0  0  0  0  0  0  0
   -7.6388    6.9454    2.1985 C   0  0  0  0  0  0  0  0  0  0  0  0
   -6.4140    6.9845    2.0799 O   0  0  0  0  0  0  0  0  0  0  0  0
   -8.0792    8.5075    4.1059 C   0  0  0  0  0  0  0  0  0  0  0  0
   -8.5312    7.4948    5.1623 C   0  0  0  0  0  0  0  0  0  0  0  0
   -9.1352    6.2701    4.5103 C   0  0  0  0  0  0  0  0  0  0  0  0
   -9.9090    5.5020    5.0727 O   0  0  0  0  0  0  0  0  0  0  0  0
   -8.7412    6.0676    3.2247 N   0  0  0  0  0  0  0  0  0  0  0  0
   -8.3342    5.8101    1.8485 N   0  0  0  0  0  0  0  0  0  0  0  0
   -8.2132    4.6271    2.7236 C   0  0  2  0  0  0  0  0  0  0  0  0
   -8.2470    3.4273    1.7331 C   0  0  0  0  0  0  0  0  0  0  0  0
   -7.9970    3.5930    0.5374 O   0  0  0  0  0  0  0  0  0  0  0  0
   -9.3263    4.6180    3.7802 C   0  0  0  0  0  0  0  0  0  0  0  0
   -8.8674    4.8566    5.2360 C   0  0  1  0  0  0  0  0  0  0  0  0
   -8.4323    3.5669    5.9302 C   0  0  0  0  0  0  0  0  0  0  0  0
   -7.7112    5.8603    5.2460 C   0  0  0  0  0  0  0  0  0  0  0  0
   -8.4737    2.1849    2.2751 N   0  0  0  0  0  0  0  0  0  0  0  0
   -8.6310    1.0179    1.4040 C   0  0  2  0  0  0  0  0  0  0  0  0
   -9.9740    0.4155    1.8649 C   0  0  0  0  0  0  0  0  0  0  0  0
  -10.0018   -0.2804    2.8972 O   0  0  0  0  0  0  0  0  0  0  0  0
   -7.5178   -0.0238    1.6396 C   0  0  0  0  0  0  0  0  0  0  0  0
   -7.3638   -0.6380    3.0448 C   0  0  1  0  0  0  0  0  0  0  0  0
   -6.6330    0.2712    4.0245 C   0  0  0  0  0  0  0  0  0  0  0  0
   -8.6870   -1.1305    3.6295 C   0  0  0  0  0  0  0  0  0  0  0  0
  -13.7123    0.5500   -1.0579 O   0  0  0  0  0  0  0  0  0  0  0  0
  -12.8006    0.2739   -0.2714 C   0  0  0  0  0  0  0  0  0  0  0  0
  -11.6954    1.3399    0.0778 C   0  0  2  0  0  0  0  0  0  0  0  0
  -10.6663    1.3719   -1.0529 C   0  0  0  0  0  0  0  0  0  0  0  0
  -11.1768    0.8252    1.3903 N   0  0  0  0  0  0  0  0  0  0  0  0
  -12.3880    2.7043    0.3580 C   0  0  0  0  0  0  0  0  0  0  0  0
  -12.5559    3.6636   -0.8368 C   0  0  0  0  0  0  0  0  0  0  0  0
  -13.7862    4.5804   -0.7510 C   0  0  0  0  0  0  0  0  0  0  0  0
  -13.8243    5.4628    0.4583 C   0  0  0  0  0  0  0  0  0  0  0  0
  -12.7003   -0.9615    0.3199 N   0  0  0  0  0  0  0  0  0  0  0  0
  -11.5854   -1.3055    1.2140 C   0  0  2  0  0  0  0  0  0  0  0  0
  -11.2151   -2.7836    1.0146 C   0  0  0  0  0  0  0  0  0  0  0  0
  -10.4693   -3.3996    1.7662 O   0  0  0  0  0  0  0  0  0  0  0  0
  -11.8424   -0.9899    2.7016 C   0  0  0  0  0  0  0  0  0  0  0  0
  -11.6729    0.4637    3.0938 C   0  0  0  0  0  0  0  0  0  0  0  0
  -12.7639    1.3440    3.0391 C   0  0  0  0  0  0  0  0  0  0  0  0
  -10.4289    0.9535    3.5089 C   0  0  0  0  0  0  0  0  0  0  0  0
  -12.6121    2.6809    3.4057 C   0  0  0  0  0  0  0  0  0  0  0  0
  -10.2823    2.2904    3.8859 C   0  0  0  0  0  0  0  0  0  0  0  0
  -11.3736    3.1502    3.8357 C   0  0  0  0  0  0  0  0  0  0  0  0
  -11.8583   -3.4298   -0.0161 N   0  0  0  0  0  0  0  0  0  0  0  0
    0.7339   13.1565    8.8695 H   0  0  0  0  0  0  0  0  0  0  0  0
  -12.2621   15.0210    2.7393 H   0  0  0  0  0  0  0  0  0  0  0  0
  1  2  2  0
  1  3  1  0
  4  1  1  0
  5  4  1  0
  6  5  1  0
  5  8  1  6
  6  7  2  0
 13  6  1  0
  8  9  1  0
  9 10  1  0
 10 11  1  0
 11 12  1  0
 14 13  1  0
 15 14  1  0
 14 17  1  6
 15 16  2  0
 22 15  1  0
 17 18  1  0
 18 19  1  0
 19 20  1  0
 20 21  1  0
 23 22  1  0
 24 23  1  0
 23 26  1  6
 24 25  2  0
 33 24  1  0
 26 27  1  0
 27 28  1  0
 28 29  1  0
 29 30  1  0
 30 31  1  0
 30 32  2  0
 34 33  1  0
 35 34  1  0
 34 37  1  1
 35 36  2  0
 45 35  1  0
 37 38  1  0
 38 39  2  0
 38 40  1  0
 39 41  1  0
 40 42  2  0
 41 43  2  0
 42 43  1  0
 43 44  1  0
 46 45  1  0
 47 46  1  0
 46 49  1  6
 47 48  2  0
 51 47  1  0
 49 50  1  0
 52 51  1  0
 53 52  1  0
 52 55  1  1
 53 54  2  0
 66 53  1  0
 55 56  1  0
 56 57  1  0
 57 58  1  0
 58 59  1  0
 59 60  2  0
 59 61  1  0
 63 62  2  0
 63 64  1  0
 71 63  1  0
 64 65  1  6
 64 66  1  0
 64 67  1  0
 67 68  1  0
 68 69  1  0
 69 70  1  0
 70104  2  0
 72 71  1  0
 73 72  1  0
 72 75  1  1
 73 74  2  0
 80 73  1  0
 75 76  1  0
 76 77  1  0
 77 78  2  0
 77 79  1  0
 81 80  1  0
 82 81  1  0
 81 84  1  1
 82 83  2  0
 88 82  1  0
 84 85  1  0
 85 86  1  6
 85 87  1  0
 89 88  1  0
 90 89  1  0
 89 92  1  1
 90 91  2  0
100 90  1  0
 92 93  1  0
 93 94  1  1
 93 95  1  0
 97 96  2  0
 98 97  1  0
 97105  1  0
 98 99  1  6
 98100  1  0
 98101  1  0
101102  1  0
102103  1  0
103104  1  0
105106  1  0
106107  1  0
106109  1  1
107108  2  0
107116  1  0
109110  1  0
110111  2  0
110112  1  0
111113  1  0
112114  2  0
113115  2  0
114115  1  0
 32117  1  0
 60118  1  0
M  CHG  2  12   1  21   1
M  END
$$$$
