
     RDKit          3D

118120  0  0  0  0  0  0  0  0999 V2000
    2.6743    4.2029   11.1687 C   0  0  0  0  0  0  0  0  0  0  0  0
    3.1579    3.0792   11.2385 O   0  0  0  0  0  0  0  0  0  0  0  0
    3.1548    5.2385   10.1921 C   0  0  0  0  0  0  0  0  0  0  0  0
    1.6539    4.6242   11.9870 N   0  0  0  0  0  0  0  0  0  0  0  0
    1.1075    5.9812   11.9170 C   0  0  2  0  0  0  0  0  0  0  0  0
    0.3485    6.0513   10.5757 C   0  0  0  0  0  0  0  0  0  0  0  0
    0.4900    7.0050    9.8059 O   0  0  0  0  0  0  0  0  0  0  0  0
    2.2292    7.0333   12.0211 C   0  0  0  0  0  0  0  0  0  0  0  0
    2.0838    7.8825   13.2937 C   0  0  0  0  0  0  0  0  0  0  0  0
    2.0656    7.1118   14.6119 C   0  0  0  0  0  0  0  0  0  0  0  0
    0.6596    6.7854   15.0960 C   0  0  0  0  0  0  0  0  0  0  0  0
    0.7547    5.9028   16.2816 N   0  0  0  0  0  4  0  0  0  0  0  0
   -0.4890    4.9901   10.2862 N   0  0  0  0  0  0  0  0  0  0  0  0
   -1.2213    5.0282    9.0219 C   0  0  2  0  0  0  0  0  0  0  0  0
   -2.1146    6.2843    9.0323 C   0  0  0  0  0  0  0  0  0  0  0  0
   -2.4719    6.8327   10.0718 O   0  0  0  0  0  0  0  0  0  0  0  0
   -2.0889    3.7842    8.7846 C   0  0  0  0  0  0  0  0  0  0  0  0
   -1.2875    2.6324    8.1653 C   0  0  0  0  0  0  0  0  0  0  0  0
   -0.9553    2.8465    6.6791 C   0  0  0  0  0  0  0  0  0  0  0  0
   -0.2769    1.6387    6.0358 C   0  0  0  0  0  0  0  0  0  0  0  0
   -1.0260    1.2473    4.8157 N   0  0  0  0  0  4  0  0  0  0  0  0
   -2.4864    6.6989    7.7732 N   0  0  0  0  0  0  0  0  0  0  0  0
   -3.6637    7.5179    7.5445 C   0  0  2  0  0  0  0  0  0  0  0  0
   -4.7871    6.6932    6.8865 C   0  0  0  0  0  0  0  0  0  0  0  0
   -4.5681    5.7296    6.1514 O   0  0  0  0  0  0  0  0  0  0  0  0
   -3.3238    8.7361    6.6780 C   0  0  0  0  0  0  0  0  0  0  0  0
   -1.9024    9.2890    6.8323 C   0  0  0  0  0  0  0  0  0  0  0  0
   -1.9374   10.8149    6.9324 C   0  0  0  0  0  0  0  0  0  0  0  0
   -1.1957   11.2864    8.0847 N   0  0  0  0  0  0  0  0  0  0  0  0
   -1.5427   12.3826    8.7924 C   0  0  0  0  0  0  0  0  0  0  0  0
   -2.5458   13.0555    8.1966 N   0  0  0  0  0  0  0  0  0  0  0  0
   -0.9834   12.7652    9.8813 N   0  0  0  0  0  0  0  0  0  0  0  0
   -6.0448    7.1910    7.1489 N   0  0  0  0  0  0  0  0  0  0  0  0
   -7.2725    6.5851    6.6242 C   0  0  2  0  0  0  0  0  0  0  0  0
   -7.6006    7.1675    5.2281 C   0  0  0  0  0  0  0  0  0  0  0  0
   -8.5563    6.8132    4.5448 O   0  0  0  0  0  0  0  0  0  0  0  0
   -8.4717    6.6505    7.5903 C   0  0  0  0  0  0  0  0  0  0  0  0
   -9.4524    5.5031    7.5007 C   0  0  0  0  0  0  0  0  0  0  0  0
  -10.7590    5.7201    7.0439 C   0  0  0  0  0  0  0  0  0  0  0  0
   -9.0570    4.1968    7.8311 C   0  0  0  0  0  0  0  0  0  0  0  0
  -11.6578    4.6568    6.9171 C   0  0  0  0  0  0  0  0  0  0  0  0
   -9.9534    3.1359    7.6979 C   0  0  0  0  0  0  0  0  0  0  0  0
  -11.2451    3.3730    7.2461 C   0  0  0  0  0  0  0  0  0  0  0  0
  -12.0863    2.3049    7.1226 O   0  0  0  0  0  0  0  0  0  0  0  0
   -6.6600    8.0560    4.7479 N   0  0  0  0  0  0  0  0  0  0  0  0
   -6.8200    8.7605    3.4762 C   0  0  2  0  0  0  0  0  0  0  0  0
   -7.2169    7.7314    2.3949 C   0  0  0  0  0  0  0  0  0  0  0  0
   -6.8578    6.5559    2.4414 O   0  0  0  0  0  0  0  0  0  0  0  0
   -5.5119    9.4786    3.0811 C   0  0  0  0  0  0  0  0  0  0  0  0
   -4.5543    8.5946    2.4851 O   0  0  0  0  0  0  0  0  0  0  0  0
   -7.9816    8.2466    1.3690 N   0  0  0  0  0  0  0  0  0  0  0  0
   -8.3374    7.4658    0.1827 C   0  0  2  0  0  0  0  0  0  0  0  0
   -7.6946    8.0488   -1.1064 C   0  0  0  0  0  0  0  0  0  0  0  0
   -6.7872    8.8739   -1.0694 O   0  0  0  0  0  0  0  0  0  0  0  0
   -9.8575    7.4292   -0.0233 C   0  0  0  0  0  0  0  0  0  0  0  0
  -10.4571    8.7894   -0.3849 C   0  0  0  0  0  0  0  0  0  0  0  0
  -11.9823    8.7520   -0.2894 C   0  0  0  0  0  0  0  0  0  0  0  0
  -12.4340    7.5420    0.3694 N   0  0  0  0  0  0  0  0  0  0  0  0
  -13.5239    6.8559   -0.0360 C   0  0  0  0  0  0  0  0  0  0  0  0
  -14.2956    6.1780    0.7269 N   0  0  0  0  0  0  0  0  0  0  0  0
  -13.6977    6.9531   -1.3714 N   0  0  0  0  0  0  0  0  0  0  0  0
  -11.4961    6.3053   -2.7077 O   0  0  0  0  0  0  0  0  0  0  0  0
  -10.5423    6.6781   -2.0232 C   0  0  0  0  0  0  0  0  0  0  0  0
   -9.0565    6.3445   -2.3963 C   0  0  2  0  0  0  0  0  0  0  0  0
   -8.5015    5.3589   -1.3526 C   0  0  0  0  0  0  0  0  0  0  0  0
   -8.2073    7.5563   -2.2930 N   0  0  0  0  0  0  0  0  0  0  0  0
   -8.9535    5.7534   -3.8417 C   0  0  0  0  0  0  0  0  0  0  0  0
   -9.0137    4.2161   -4.0362 C   0  0  0  0  0  0  0  0  0  0  0  0
  -10.3109    3.6266   -4.6067 C   0  0  0  0  0  0  0  0  0  0  0  0
  -11.4734    3.5887   -3.6641 C   0  0  0  0  0  0  0  0  0  0  0  0
  -10.9078    7.2957   -0.8681 N   0  0  0  0  0  0  0  0  0  0  0  0
  -10.1599    8.1281    0.0688 C   0  0  2  0  0  0  0  0  0  0  0  0
   -9.6963    7.3839    1.3438 C   0  0  0  0  0  0  0  0  0  0  0  0
   -8.9793    7.8893    2.2076 O   0  0  0  0  0  0  0  0  0  0  0  0
  -11.0063    9.3336    0.4750 C   0  0  0  0  0  0  0  0  0  0  0  0
  -12.4732    8.9940    0.7555 C   0  0  0  0  0  0  0  0  0  0  0  0
  -12.6082    8.2144    2.0453 C   0  0  0  0  0  0  0  0  0  0  0  0
  -11.6749    7.9720    2.8038 O   0  0  0  0  0  0  0  0  0  0  0  0
  -13.8694    7.7789    2.3077 N   0  0  0  0  0  0  0  0  0  0  0  0
  -10.0938    6.0705    1.4529 N   0  0  0  0  0  0  0  0  0  0  0  0
  -11.0985    5.7346    2.4813 C   0  0  2  0  0  0  0  0  0  0  0  0
  -10.6641    4.3255    2.9788 C   0  0  0  0  0  0  0  0  0  0  0  0
   -9.5157    3.9193    2.7894 O   0  0  0  0  0  0  0  0  0  0  0  0
  -12.5159    5.7993    1.8962 C   0  0  0  0  0  0  0  0  0  0  0  0
  -13.6365    5.2325    2.7961 C   0  0  1  0  0  0  0  0  0  0  0  0
  -15.0322    5.5723    2.2753 C   0  0  0  0  0  0  0  0  0  0  0  0
  -13.4836    3.7126    2.9011 C   0  0  0  0  0  0  0  0  0  0  0  0
  -11.5877    3.6161    3.7085 N   0  0  0  0  0  0  0  0  0  0  0  0
  -11.3023    2.2398    4.1205 C   0  0  2  0  0  0  0  0  0  0  0  0
  -12.5246    1.4574    3.5980 C   0  0  0  0  0  0  0  0  0  0  0  0
  -13.5866    1.4915    4.2472 O   0  0  0  0  0  0  0  0  0  0  0  0
  -11.2506    2.1033    5.6562 C   0  0  0  0  0  0  0  0  0  0  0  0
  -12.5601    2.2443    6.4568 C   0  0  1  0  0  0  0  0  0  0  0  0
  -13.3039    3.5433    6.1741 C   0  0  0  0  0  0  0  0  0  0  0  0
  -13.4832    1.0354    6.3090 C   0  0  0  0  0  0  0  0  0  0  0  0
  -12.0131   -1.9351    1.8974 O   0  0  0  0  0  0  0  0  0  0  0  0
  -12.2297   -1.0286    1.0867 C   0  0  0  0  0  0  0  0  0  0  0  0
  -11.6485    0.4151    1.3270 C   0  0  2  0  0  0  0  0  0  0  0  0
  -10.2056    0.2905    1.8180 C   0  0  0  0  0  0  0  0  0  0  0  0
  -12.6137    0.9704    2.3352 N   0  0  0  0  0  0  0  0  0  0  0  0
  -11.8159    1.2447    0.0218 C   0  0  0  0  0  0  0  0  0  0  0  0
  -10.6403    1.2281   -0.9750 C   0  0  0  0  0  0  0  0  0  0  0  0
  -11.0494    1.3937   -2.4470 C   0  0  0  0  0  0  0  0  0  0  0  0
  -11.7922    2.6581   -2.7502 C   0  0  0  0  0  0  0  0  0  0  0  0
  -12.9862   -1.2285   -0.0418 N   0  0  0  0  0  0  0  0  0  0  0  0
  -13.1076   -0.2015   -1.0865 C   0  0  2  0  0  0  0  0  0  0  0  0
  -14.4627   -0.3582   -1.7943 C   0  0  0  0  0  0  0  0  0  0  0  0
  -15.2023    0.5838   -2.0515 O   0  0  0  0  0  0  0  0  0  0  0  0
  -11.9461   -0.1858   -2.1010 C   0  0  0  0  0  0  0  0  0  0  0  0
  -10.6584   -0.8234   -1.6208 C   0  0  0  0  0  0  0  0  0  0  0  0
   -9.5119   -0.0400   -1.4201 C   0  0  0  0  0  0  0  0  0  0  0  0
  -10.5879   -2.2002   -1.3768 C   0  0  0  0  0  0  0  0  0  0  0  0
   -8.3271   -0.6234   -0.9719 C   0  0  0  0  0  0  0  0  0  0  0  0
   -9.4030   -2.7799   -0.9176 C   0  0  0  0  0  0  0  0  0  0  0  0
   -8.2767   -1.9908   -0.7142 C   0  0  0  0  0  0  0  0  0  0  0  0
  -14.7691   -1.6269   -2.2303 N   0  0  0  0  0  0  0  0  0  0  0  0
   -0.3836   12.0178   10.2347 H   0  0  0  0  0  0  0  0  0  0  0  0
  -13.9829    6.2604    1.6923 H   0  0  0  0  0  0  0  0  0  0  0  0
  1  2  2  0
  1  3  1  0
  4  1  1  0
  5  4  1  0
  6  5  1  0
  5  8  1  6
  6  7  2  0
 13  6  1  0
  8  9  1  0
  9 10  1  0
 10 11  1  0
 11 12  1  0
 14 13  1  0
 15 14  1  0
 14 17  1  1
 15 16  2  0
 22 15  1  0
 17 18  1  0
 18 19  1  0
 19 20  1  0
 20 21  1  0
 23 22  1  0
 24 23  1  0
 23 26  1  6
 24 25  2  0
 33 24  1  0
 26 27  1  0
 27 28  1  0
 28 29  1  0
 29 30  1  0
 30 31  1  0
 30 32  2  0
 34 33  1  0
 35 34  1  0
 34 37  1  1
 35 36  2  0
 45 35  1  0
 37 38  1  0
 38 39  2  0
 38 40  1  0
 39 41  1  0
 40 42  2  0
 41 43  2  0
 42 43  1  0
 43 44  1  0
 46 45  1  0
 47 46  1  0
 46 49  1  6
 47 48  2  0
 51 47  1  0
 49 50  1  0
 52 51  1  0
 53 52  1  0
 52 55  1  6
 53 54  2  0
 66 53  1  0
 55 56  1  0
 56 57  1  0
 57 58  1  0
 58 59  1  0
 59 60  2  0
 59 61  1  0
 63 62  2  0
 63 64  1  0
 71 63  1  0
 64 65  1  1
 64 66  1  0
 64 67  1  0
 67 68  1  0
 68 69  1  0
 69 70  1  0
 70104  2  0
 72 71  1  0
 73 72  1  0
 72 75  1  1
 73 74  2  0
 80 73  1  0
 75 76  1  0
 76 77  1  0
 77 78  2  0
 77 79  1  0
 81 80  1  0
 82 81  1  0
 81 84  1  6
 82 83  2  0
 88 82  1  0
 84 85  1  0
 85 86  1  6
 85 87  1  0
 89 88  1  0
 90 89  1  0
 89 92  1  1
 90 91  2  0
100 90  1  0
 92 93  1  0
 93 94  1  6
 93 95  1  0
 97 96  2  0
 98 97  1  0
 97105  1  0
 98 99  1  1
 98100  1  0
 98101  1  0
101102  1  0
102103  1  0
103104  1  0
105106  1  0
106107  1  0
106109  1  6
107108  2  0
107116  1  0
109110  1  0
110111  2  0
110112  1  0
111113  1  0
112114  2  0
113115  2  0
114115  1  0
 32117  1  0
 60118  1  0
M  CHG  2  12   1  21   1
M  END
$$$$
