
     RDKit          3D

118120  0  0  0  0  0  0  0  0999 V2000
    0.4378    3.1164   10.0906 C   0  0  0  0  0  0  0  0  0  0  0  0
    0.0007    1.9809    9.9461 O   0  0  0  0  0  0  0  0  0  0  0  0
    1.4667    3.7170    9.1754 C   0  0  0  0  0  0  0  0  0  0  0  0
    0.0351    3.9426   11.1123 N   0  0  0  0  0  0  0  0  0  0  0  0
   -0.8951    3.4996   12.1531 C   0  0  2  0  0  0  0  0  0  0  0  0
   -2.3049    3.7748   11.5904 C   0  0  0  0  0  0  0  0  0  0  0  0
   -3.3024    3.2149   12.0526 O   0  0  0  0  0  0  0  0  0  0  0  0
   -0.6301    4.2378   13.4801 C   0  0  0  0  0  0  0  0  0  0  0  0
    0.8011    3.9902   13.9823 C   0  0  0  0  0  0  0  0  0  0  0  0
    1.2507    2.5314   14.0238 C   0  0  0  0  0  0  0  0  0  0  0  0
    0.8479    1.8162   15.3059 C   0  0  0  0  0  0  0  0  0  0  0  0
    1.4476    0.4619   15.3070 N   0  0  0  0  0  4  0  0  0  0  0  0
   -2.3860    4.6814   10.5497 N   0  0  0  0  0  0  0  0  0  0  0  0
   -3.6941    4.8914    9.9324 C   0  0  2  0  0  0  0  0  0  0  0  0
   -3.5205    4.7666    8.4060 C   0  0  0  0  0  0  0  0  0  0  0  0
   -2.4238    4.6054    7.8765 O   0  0  0  0  0  0  0  0  0  0  0  0
   -4.3123    6.2558   10.2682 C   0  0  0  0  0  0  0  0  0  0  0  0
   -3.2950    7.2072   10.9101 C   0  0  0  0  0  0  0  0  0  0  0  0
   -2.6391    8.1707    9.9070 C   0  0  0  0  0  0  0  0  0  0  0  0
   -1.5813    9.0705   10.5428 C   0  0  0  0  0  0  0  0  0  0  0  0
   -0.7481    9.6783    9.4754 N   0  0  0  0  0  4  0  0  0  0  0  0
   -4.7034    4.8840    7.7116 N   0  0  0  0  0  0  0  0  0  0  0  0
   -4.9358    4.1914    6.4563 C   0  0  2  0  0  0  0  0  0  0  0  0
   -4.6999    5.1320    5.2584 C   0  0  0  0  0  0  0  0  0  0  0  0
   -3.5934    5.5940    4.9772 O   0  0  0  0  0  0  0  0  0  0  0  0
   -6.3545    3.6129    6.4042 C   0  0  0  0  0  0  0  0  0  0  0  0
   -6.7625    2.9647    5.0764 C   0  0  0  0  0  0  0  0  0  0  0  0
   -6.7236    1.4405    5.1990 C   0  0  0  0  0  0  0  0  0  0  0  0
   -6.2120    0.8258    3.9904 N   0  0  0  0  0  0  0  0  0  0  0  0
   -7.0053    0.3612    3.0015 C   0  0  0  0  0  0  0  0  0  0  0  0
   -6.2818   -0.1928    2.0098 N   0  0  0  0  0  0  0  0  0  0  0  0
   -8.2846    0.4499    2.9790 N   0  0  0  0  0  0  0  0  0  0  0  0
   -5.8608    5.4531    4.5893 N   0  0  0  0  0  0  0  0  0  0  0  0
   -6.2624    6.8325    4.2971 C   0  0  2  0  0  0  0  0  0  0  0  0
   -7.5197    6.8424    3.3942 C   0  0  0  0  0  0  0  0  0  0  0  0
   -7.7867    5.9630    2.5811 O   0  0  0  0  0  0  0  0  0  0  0  0
   -5.1280    7.7165    3.7429 C   0  0  0  0  0  0  0  0  0  0  0  0
   -5.5585    9.0227    3.1146 C   0  0  0  0  0  0  0  0  0  0  0  0
   -5.8813   10.1244    3.9177 C   0  0  0  0  0  0  0  0  0  0  0  0
   -5.5990    9.1656    1.7183 C   0  0  0  0  0  0  0  0  0  0  0  0
   -6.2380   11.3480    3.3430 C   0  0  0  0  0  0  0  0  0  0  0  0
   -5.9491   10.3892    1.1464 C   0  0  0  0  0  0  0  0  0  0  0  0
   -6.2683   11.4681    1.9605 C   0  0  0  0  0  0  0  0  0  0  0  0
   -6.5968   12.6489    1.3590 O   0  0  0  0  0  0  0  0  0  0  0  0
   -8.2808    7.9895    3.4926 N   0  0  0  0  0  0  0  0  0  0  0  0
   -9.5274    8.1730    2.7501 C   0  0  2  0  0  0  0  0  0  0  0  0
   -9.1768    8.5380    1.2907 C   0  0  0  0  0  0  0  0  0  0  0  0
   -8.0694    8.3143    0.8040 O   0  0  0  0  0  0  0  0  0  0  0  0
  -10.3865    9.2840    3.3908 C   0  0  0  0  0  0  0  0  0  0  0  0
   -9.6045   10.3974    3.8406 O   0  0  0  0  0  0  0  0  0  0  0  0
  -10.1964    9.1534    0.5948 N   0  0  0  0  0  0  0  0  0  0  0  0
  -10.2900    9.1127   -0.8657 C   0  0  2  0  0  0  0  0  0  0  0  0
  -11.4524    9.9980   -1.3946 C   0  0  0  0  0  0  0  0  0  0  0  0
  -11.3752   10.6160   -2.4518 O   0  0  0  0  0  0  0  0  0  0  0  0
  -10.5211    7.6813   -1.3681 C   0  0  0  0  0  0  0  0  0  0  0  0
   -9.4555    7.2018   -2.3556 C   0  0  0  0  0  0  0  0  0  0  0  0
   -8.3409    8.2386   -2.4959 C   0  0  0  0  0  0  0  0  0  0  0  0
   -7.2898    7.7587   -3.3718 N   0  0  0  0  0  0  0  0  0  0  0  0
   -6.6468    8.5627   -4.2454 C   0  0  0  0  0  0  0  0  0  0  0  0
   -6.5149    9.8295   -4.1235 N   0  0  0  0  0  0  0  0  0  0  0  0
   -6.1663    7.8633   -5.2957 N   0  0  0  0  0  0  0  0  0  0  0  0
  -11.1831    8.5885    2.3253 O   0  0  0  0  0  0  0  0  0  0  0  0
  -11.4446    8.5911    1.1216 C   0  0  0  0  0  0  0  0  0  0  0  0
  -12.8089    9.1186    0.5573 C   0  0  2  0  0  0  0  0  0  0  0  0
  -13.6003    7.9225   -0.0013 C   0  0  0  0  0  0  0  0  0  0  0  0
  -12.5824   10.0222   -0.5971 N   0  0  0  0  0  0  0  0  0  0  0  0
  -13.6262    9.8708    1.6598 C   0  0  0  0  0  0  0  0  0  0  0  0
  -14.6495    9.0793    2.5149 C   0  0  0  0  0  0  0  0  0  0  0  0
  -14.2604    8.7589    3.9646 C   0  0  0  0  0  0  0  0  0  0  0  0
  -13.2323    7.6841    4.1359 C   0  0  0  0  0  0  0  0  0  0  0  0
  -10.4949    7.9910    0.3555 N   0  0  0  0  0  0  0  0  0  0  0  0
  -10.2445    8.0180   -1.0820 C   0  0  2  0  0  0  0  0  0  0  0  0
  -10.7547    6.7666   -1.8357 C   0  0  0  0  0  0  0  0  0  0  0  0
  -10.7170    6.6434   -3.0601 O   0  0  0  0  0  0  0  0  0  0  0  0
   -8.7473    8.1799   -1.3407 C   0  0  0  0  0  0  0  0  0  0  0  0
   -8.1089    9.3432   -0.5758 C   0  0  0  0  0  0  0  0  0  0  0  0
   -8.6299   10.6706   -1.0818 C   0  0  0  0  0  0  0  0  0  0  0  0
   -8.9889   11.5913   -0.3547 O   0  0  0  0  0  0  0  0  0  0  0  0
   -8.6848   10.7716   -2.4367 N   0  0  0  0  0  0  0  0  0  0  0  0
  -11.3167    5.7812   -1.0559 N   0  0  0  0  0  0  0  0  0  0  0  0
  -10.5768    4.5126   -0.9040 C   0  0  2  0  0  0  0  0  0  0  0  0
  -11.6966    3.4331   -0.8537 C   0  0  0  0  0  0  0  0  0  0  0  0
  -12.8252    3.6787   -1.2844 O   0  0  0  0  0  0  0  0  0  0  0  0
   -9.6728    4.5572    0.3355 C   0  0  0  0  0  0  0  0  0  0  0  0
   -8.1784    4.8387    0.0626 C   0  0  1  0  0  0  0  0  0  0  0  0
   -7.9671    6.0672   -0.8210 C   0  0  0  0  0  0  0  0  0  0  0  0
   -7.4466    5.0315    1.3936 C   0  0  0  0  0  0  0  0  0  0  0  0
  -11.3344    2.1881   -0.3983 N   0  0  0  0  0  0  0  0  0  0  0  0
  -12.3478    1.1466   -0.2145 C   0  0  2  0  0  0  0  0  0  0  0  0
  -12.1280    0.6979    1.2448 C   0  0  0  0  0  0  0  0  0  0  0  0
  -11.1948   -0.0852    1.5023 O   0  0  0  0  0  0  0  0  0  0  0  0
  -12.1002   -0.0603   -1.1429 C   0  0  0  0  0  0  0  0  0  0  0  0
  -10.7078   -0.7214   -1.1426 C   0  0  1  0  0  0  0  0  0  0  0  0
   -9.6531    0.0915   -1.8823 C   0  0  0  0  0  0  0  0  0  0  0  0
  -10.2292   -1.1045    0.2572 C   0  0  0  0  0  0  0  0  0  0  0  0
  -15.7230    1.4153    4.1894 O   0  0  0  0  0  0  0  0  0  0  0  0
  -14.5965    1.1689    3.7465 C   0  0  0  0  0  0  0  0  0  0  0  0
  -13.9930    2.0281    2.5728 C   0  0  2  0  0  0  0  0  0  0  0  0
  -14.9777    2.0253    1.4027 C   0  0  0  0  0  0  0  0  0  0  0  0
  -12.6956    1.3185    2.3089 N   0  0  0  0  0  0  0  0  0  0  0  0
  -13.6433    3.4425    3.1177 C   0  0  0  0  0  0  0  0  0  0  0  0
  -14.7301    4.5288    2.9965 C   0  0  0  0  0  0  0  0  0  0  0  0
  -14.6898    5.5976    4.1000 C   0  0  0  0  0  0  0  0  0  0  0  0
  -13.4000    6.3531    4.1907 C   0  0  0  0  0  0  0  0  0  0  0  0
  -13.8302    0.1418    4.2402 N   0  0  0  0  0  0  0  0  0  0  0  0
  -12.5835   -0.2801    3.5856 C   0  0  2  0  0  0  0  0  0  0  0  0
  -12.2338   -1.7071    4.0365 C   0  0  0  0  0  0  0  0  0  0  0  0
  -11.2930   -2.3467    3.5820 O   0  0  0  0  0  0  0  0  0  0  0  0
  -11.3960    0.6802    3.7999 C   0  0  0  0  0  0  0  0  0  0  0  0
  -10.5981    0.4505    5.0671 C   0  0  0  0  0  0  0  0  0  0  0  0
  -11.0401    0.9809    6.2884 C   0  0  0  0  0  0  0  0  0  0  0  0
   -9.4075   -0.2855    5.0408 C   0  0  0  0  0  0  0  0  0  0  0  0
  -10.3109    0.7655    7.4575 C   0  0  0  0  0  0  0  0  0  0  0  0
   -8.6851   -0.5089    6.2152 C   0  0  0  0  0  0  0  0  0  0  0  0
   -9.1388    0.0147    7.4204 C   0  0  0  0  0  0  0  0  0  0  0  0
  -12.9829   -2.2087    5.0761 N   0  0  0  0  0  0  0  0  0  0  0  0
   -8.6304    0.6012    3.9282 H   0  0  0  0  0  0  0  0  0  0  0  0
   -7.4321   10.2643   -4.0447 H   0  0  0  0  0  0  0  0  0  0  0  0
  1  2  2  0
  1  3  1  0
  4  1  1  0
  5  4  1  0
  6  5  1  0
  5  8  1  1
  6  7  2  0
 13  6  1  0
  8  9  1  0
  9 10  1  0
 10 11  1  0
 11 12  1  0
 14 13  1  0
 15 14  1  0
 14 17  1  6
 15 16  2  0
 22 15  1  0
 17 18  1  0
 18 19  1  0
 19 20  1  0
 20 21  1  0
 23 22  1  0
 24 23  1  0
 23 26  1  1
 24 25  2  0
 33 24  1  0
 26 27  1  0
 27 28  1  0
 28 29  1  0
 29 30  1  0
 30 31  1  0
 30 32  2  0
 34 33  1  0
 35 34  1  0
 34 37  1  6
 35 36  2  0
 45 35  1  0
 37 38  1  0
 38 39  2  0
 38 40  1  0
 39 41  1  0
 40 42  2  0
 41 43  2  0
 42 43  1  0
 43 44  1  0
 46 45  1  0
 47 46  1  0
 46 49  1  1
 47 48  2  0
 51 47  1  0
 49 50  1  0
 52 51  1  0
 53 52  1  0
 52 55  1  1
 53 54  2  0
 66 53  1  0
 55 56  1  0
 56 57  1  0
 57 58  1  0
 58 59  1  0
 59 60  2  0
 59 61  1  0
 63 62  2  0
 63 64  1  0
 71 63  1  0
 64 65  1  6
 64 66  1  0
 64 67  1  0
 67 68  1  0
 68 69  1  0
 69 70  1  0
 70104  2  0
 72 71  1  0
 73 72  1  0
 72 75  1  1
 73 74  2  0
 80 73  1  0
 75 76  1  0
 76 77  1  0
 77 78  2  0
 77 79  1  0
 81 80  1  0
 82 81  1  0
 81 84  1  1
 82 83  2  0
 88 82  1  0
 84 85  1  0
 85 86  1  6
 85 87  1  0
 89 88  1  0
 90 89  1  0
 89 92  1  6
 90 91  2  0
100 90  1  0
 92 93  1  0
 93 94  1  1
 93 95  1  0
 97 96  2  0
 98 97  1  0
 97105  1  0
 98 99  1  6
 98100  1  0
 98101  1  0
101102  1  0
102103  1  0
103104  1  0
105106  1  0
106107  1  0
106109  1  1
107108  2  0
107116  1  0
109110  1  0
110111  2  0
110112  1  0
111113  1  0
112114  2  0
113115  2  0
114115  1  0
 32117  1  0
 60118  1  0
M  CHG  2  12   1  21   1
M  END
$$$$
