
     RDKit          3D

 14 15  0  0  0  0  0  0  0  0999 V2000
    3.0071  -14.7277    9.2824 N   0  0  0  0  0  4  0  0  0  0  0  0
    4.2552  -14.6034    9.4552 C   0  0  0  0  0  0  0  0  0  0  0  0
    4.9867  -13.7550    8.5790 N   0  0  0  0  0  0  0  0  0  0  0  0
    4.9142  -15.3314   10.5695 C   0  0  2  0  0  0  0  0  0  0  0  0
    6.2940  -15.8754   10.1545 C   0  0  0  0  0  0  0  0  0  0  0  0
    5.5813  -17.1173    9.6845 C   0  0  0  0  0  0  0  0  0  0  0  0
    4.4763  -16.7426   10.6856 C   0  0  0  0  0  0  0  0  0  0  0  0
    5.0121  -14.5432   11.7925 C   0  0  0  0  0  0  0  0  0  0  0  0
    4.2289  -14.7036   12.9051 C   0  0  0  0  0  0  0  0  0  0  0  0
    4.4076  -13.8937   14.0314 C   0  0  0  0  0  0  0  0  0  0  0  0
    3.3884  -14.1366   15.4181 Cl  0  0  0  0  0  0  0  0  0  0  0  0
    5.3721  -12.9113   14.0615 C   0  0  0  0  0  0  0  0  0  0  0  0
    6.1632  -12.7424   12.9496 C   0  0  0  0  0  0  0  0  0  0  0  0
    5.9721  -13.5462   11.8569 C   0  0  0  0  0  0  0  0  0  0  0  0
  1  2  2  3
  2  3  1  0
  2  4  1  0
  7  4  1  6
  4  5  1  0
  4  8  1  1
  5  6  1  1
  6  7  1  1
  8 14  1  0
  8  9  2  0
  9 10  1  0
 10 11  1  0
 10 12  2  0
 12 13  1  0
 13 14  2  0
M  CHG  1   1   1
M  END
$$$$
