
     RDKit          3D

 14 15  0  0  0  0  0  0  0  0999 V2000
    4.9133  -17.5848   13.6759 N   0  0  0  0  0  4  0  0  0  0  0  0
    6.0267  -16.9902   13.5760 C   0  0  0  0  0  0  0  0  0  0  0  0
    6.8407  -16.8616   14.7351 N   0  0  0  0  0  0  0  0  0  0  0  0
    6.4553  -16.4593   12.2569 C   0  0  2  0  0  0  0  0  0  0  0  0
    6.4714  -17.5604   11.1801 C   0  0  0  0  0  0  0  0  0  0  0  0
    7.8921  -17.8434   11.5954 C   0  0  0  0  0  0  0  0  0  0  0  0
    7.9280  -16.3931   12.1039 C   0  0  0  0  0  0  0  0  0  0  0  0
    5.6700  -15.3122   11.8163 C   0  0  0  0  0  0  0  0  0  0  0  0
    4.3991  -15.3683   11.3077 C   0  0  0  0  0  0  0  0  0  0  0  0
    3.7307  -14.2037   10.9163 C   0  0  0  0  0  0  0  0  0  0  0  0
    2.1194  -14.3278   10.2768 Cl  0  0  0  0  0  0  0  0  0  0  0  0
    4.3235  -12.9659   11.0275 C   0  0  0  0  0  0  0  0  0  0  0  0
    5.5990  -12.8990   11.5367 C   0  0  0  0  0  0  0  0  0  0  0  0
    6.2361  -14.0514   11.9145 C   0  0  0  0  0  0  0  0  0  0  0  0
  1  2  2  3
  2  3  1  0
  2  4  1  0
  7  4  1  6
  4  5  1  0
  4  8  1  6
  5  6  1  1
  6  7  1  1
  8 14  1  0
  8  9  2  0
  9 10  1  0
 10 11  1  0
 10 12  2  0
 12 13  1  0
 13 14  2  0
M  CHG  1   1   1
M  END
$$$$
