
     RDKit          3D

 14 15  0  0  0  0  0  0  0  0999 V2000
    8.4196  -16.6905   13.2006 N   0  0  0  0  0  4  0  0  0  0  0  0
    7.9580  -16.1198   12.1688 C   0  0  0  0  0  0  0  0  0  0  0  0
    7.9353  -16.8380   10.9415 N   0  0  0  0  0  0  0  0  0  0  0  0
    7.4436  -14.7304   12.2713 C   0  0  2  0  0  0  0  0  0  0  0  0
    7.6426  -13.9532   10.9566 C   0  0  0  0  0  0  0  0  0  0  0  0
    8.9973  -13.5547   11.4830 C   0  0  0  0  0  0  0  0  0  0  0  0
    8.4129  -13.7920   12.8850 C   0  0  0  0  0  0  0  0  0  0  0  0
    6.0547  -14.6628   12.7106 C   0  0  0  0  0  0  0  0  0  0  0  0
    4.9584  -14.8095   11.9023 C   0  0  0  0  0  0  0  0  0  0  0  0
    3.6641  -14.7299   12.4267 C   0  0  0  0  0  0  0  0  0  0  0  0
    2.3059  -14.9229   11.3597 Cl  0  0  0  0  0  0  0  0  0  0  0  0
    3.4473  -14.5021   13.7673 C   0  0  0  0  0  0  0  0  0  0  0  0
    4.5413  -14.3533   14.5870 C   0  0  0  0  0  0  0  0  0  0  0  0
    5.8004  -14.4350   14.0534 C   0  0  0  0  0  0  0  0  0  0  0  0
  1  2  2  3
  2  3  1  0
  2  4  1  0
  7  4  1  6
  4  5  1  0
  4  8  1  1
  5  6  1  1
  6  7  1  1
  8 14  1  0
  8  9  2  0
  9 10  1  0
 10 11  1  0
 10 12  2  0
 12 13  1  0
 13 14  2  0
M  CHG  1   1   1
M  END
$$$$
