
     RDKit          3D

 14 15  0  0  0  0  0  0  0  0999 V2000
   -4.4672   -9.8553   -6.4723 N   0  0  0  0  0  4  0  0  0  0  0  0
   -5.2485   -9.8681   -5.4760 C   0  0  0  0  0  0  0  0  0  0  0  0
   -5.0529  -10.8490   -4.4650 N   0  0  0  0  0  0  0  0  0  0  0  0
   -6.3317   -8.8562   -5.3845 C   0  0  2  0  0  0  0  0  0  0  0  0
   -7.7223   -9.5163   -5.3351 C   0  0  0  0  0  0  0  0  0  0  0  0
   -7.7191   -9.4648   -6.8413 C   0  0  0  0  0  0  0  0  0  0  0  0
   -6.7252   -8.3004   -6.7009 C   0  0  0  0  0  0  0  0  0  0  0  0
   -6.1573   -7.9265   -4.2745 C   0  0  0  0  0  0  0  0  0  0  0  0
   -6.7545   -8.0356   -3.0463 C   0  0  0  0  0  0  0  0  0  0  0  0
   -6.5166   -7.0875   -2.0459 C   0  0  0  0  0  0  0  0  0  0  0  0
   -7.2984   -7.2704   -0.5044 Cl  0  0  0  0  0  0  0  0  0  0  0  0
   -5.6781   -6.0163   -2.2590 C   0  0  0  0  0  0  0  0  0  0  0  0
   -5.0739   -5.8979   -3.4885 C   0  0  0  0  0  0  0  0  0  0  0  0
   -5.3201   -6.8373   -4.4547 C   0  0  0  0  0  0  0  0  0  0  0  0
  1  2  2  3
  2  3  1  0
  2  4  1  0
  7  4  1  6
  4  5  1  0
  4  8  1  1
  5  6  1  1
  6  7  1  1
  8 14  1  0
  8  9  2  0
  9 10  1  0
 10 11  1  0
 10 12  2  0
 12 13  1  0
 13 14  2  0
M  CHG  1   1   1
M  END
$$$$
