
     RDKit          3D

 14 15  0  0  0  0  0  0  0  0999 V2000
    9.6673  -13.3259    8.7930 N   0  0  0  0  0  4  0  0  0  0  0  0
    8.8543  -14.2898    8.9077 C   0  0  0  0  0  0  0  0  0  0  0  0
    7.7093  -14.1250    9.7349 N   0  0  0  0  0  0  0  0  0  0  0  0
    9.1101  -15.5526    8.1691 C   0  0  2  0  0  0  0  0  0  0  0  0
   10.1382  -16.4380    8.8979 C   0  0  0  0  0  0  0  0  0  0  0  0
   11.2062  -15.7022    8.1304 C   0  0  0  0  0  0  0  0  0  0  0  0
   10.1147  -15.4050    7.0894 C   0  0  0  0  0  0  0  0  0  0  0  0
    7.8944  -16.3020    7.8739 C   0  0  0  0  0  0  0  0  0  0  0  0
    7.2532  -16.3300    6.6636 C   0  0  0  0  0  0  0  0  0  0  0  0
    6.0907  -17.0869    6.4845 C   0  0  0  0  0  0  0  0  0  0  0  0
    5.3143  -17.0893    4.9296 Cl  0  0  0  0  0  0  0  0  0  0  0  0
    5.5522  -17.8267    7.5134 C   0  0  0  0  0  0  0  0  0  0  0  0
    6.1883  -17.8051    8.7323 C   0  0  0  0  0  0  0  0  0  0  0  0
    7.3258  -17.0576    8.8867 C   0  0  0  0  0  0  0  0  0  0  0  0
  1  2  2  3
  2  3  1  0
  2  4  1  0
  7  4  1  6
  4  5  1  0
  4  8  1  6
  5  6  1  1
  6  7  1  1
  8 14  1  0
  8  9  2  0
  9 10  1  0
 10 11  1  0
 10 12  2  0
 12 13  1  0
 13 14  2  0
M  CHG  1   1   1
M  END
$$$$
