
     RDKit          3D

 14 15  0  0  0  0  0  0  0  0999 V2000
    4.6789  -17.5658   10.4985 N   0  0  0  0  0  4  0  0  0  0  0  0
    4.3166  -16.5438    9.8447 C   0  0  0  0  0  0  0  0  0  0  0  0
    3.0489  -15.9642   10.1269 N   0  0  0  0  0  0  0  0  0  0  0  0
    5.2255  -15.9740    8.8177 C   0  0  2  0  0  0  0  0  0  0  0  0
    6.6523  -16.5398    8.9458 C   0  0  0  0  0  0  0  0  0  0  0  0
    6.9336  -15.4134    9.9066 C   0  0  0  0  0  0  0  0  0  0  0  0
    5.7928  -14.6602    9.2033 C   0  0  0  0  0  0  0  0  0  0  0  0
    4.7245  -16.1294    7.4569 C   0  0  0  0  0  0  0  0  0  0  0  0
    4.9022  -17.2344    6.6669 C   0  0  0  0  0  0  0  0  0  0  0  0
    4.3756  -17.2831    5.3720 C   0  0  0  0  0  0  0  0  0  0  0  0
    4.6286  -18.7077    4.4092 Cl  0  0  0  0  0  0  0  0  0  0  0  0
    3.6637  -16.2272    4.8481 C   0  0  0  0  0  0  0  0  0  0  0  0
    3.4799  -15.1134    5.6333 C   0  0  0  0  0  0  0  0  0  0  0  0
    4.0037  -15.0860    6.8988 C   0  0  0  0  0  0  0  0  0  0  0  0
  1  2  2  3
  2  3  1  0
  2  4  1  0
  7  4  1  6
  4  5  1  0
  4  8  1  6
  5  6  1  1
  6  7  1  1
  8 14  1  0
  8  9  2  0
  9 10  1  0
 10 11  1  0
 10 12  2  0
 12 13  1  0
 13 14  2  0
M  CHG  1   1   1
M  END
$$$$
