
     RDKit          3D

 14 15  0  0  0  0  0  0  0  0999 V2000
    5.2759  -14.2915   10.0861 N   0  0  0  0  0  4  0  0  0  0  0  0
    6.1689  -14.2974   10.9837 C   0  0  0  0  0  0  0  0  0  0  0  0
    7.3006  -13.4502   10.8292 N   0  0  0  0  0  0  0  0  0  0  0  0
    6.0040  -15.1728   12.1721 C   0  0  2  0  0  0  0  0  0  0  0  0
    7.2581  -16.0307   12.4234 C   0  0  0  0  0  0  0  0  0  0  0  0
    6.6485  -17.0592   11.5060 C   0  0  0  0  0  0  0  0  0  0  0  0
    5.2912  -16.4372   11.8723 C   0  0  0  0  0  0  0  0  0  0  0  0
    5.6235  -14.4424   13.3756 C   0  0  0  0  0  0  0  0  0  0  0  0
    4.3555  -14.3624   13.8881 C   0  0  0  0  0  0  0  0  0  0  0  0
    4.0975  -13.6353   15.0547 C   0  0  0  0  0  0  0  0  0  0  0  0
    2.4716  -13.5642   15.6648 Cl  0  0  0  0  0  0  0  0  0  0  0  0
    5.1038  -12.9772   15.7258 C   0  0  0  0  0  0  0  0  0  0  0  0
    6.3800  -13.0512   15.2193 C   0  0  0  0  0  0  0  0  0  0  0  0
    6.6115  -13.7688   14.0755 C   0  0  0  0  0  0  0  0  0  0  0  0
  1  2  2  3
  2  3  1  0
  2  4  1  0
  7  4  1  6
  4  5  1  0
  4  8  1  1
  5  6  1  1
  6  7  1  1
  8 14  1  0
  8  9  2  0
  9 10  1  0
 10 11  1  0
 10 12  2  0
 12 13  1  0
 13 14  2  0
M  CHG  1   1   1
M  END
$$$$
