
     RDKit          3D

 14 15  0  0  0  0  0  0  0  0999 V2000
    8.4120  -15.5137    8.3357 N   0  0  0  0  0  4  0  0  0  0  0  0
    8.5600  -15.7445    9.5718 C   0  0  0  0  0  0  0  0  0  0  0  0
    8.9336  -17.0532    9.9841 N   0  0  0  0  0  0  0  0  0  0  0  0
    8.3543  -14.6456   10.5495 C   0  0  2  0  0  0  0  0  0  0  0  0
    8.4771  -13.2626    9.8829 C   0  0  0  0  0  0  0  0  0  0  0  0
    9.9529  -13.3319   10.1801 C   0  0  0  0  0  0  0  0  0  0  0  0
    9.5790  -14.3039   11.3110 C   0  0  0  0  0  0  0  0  0  0  0  0
    7.1007  -14.7588   11.2859 C   0  0  0  0  0  0  0  0  0  0  0  0
    5.8479  -14.6538   10.7416 C   0  0  0  0  0  0  0  0  0  0  0  0
    4.7059  -14.7818   11.5389 C   0  0  0  0  0  0  0  0  0  0  0  0
    3.1388  -14.6406   10.8006 Cl  0  0  0  0  0  0  0  0  0  0  0  0
    4.7999  -15.0165   12.8925 C   0  0  0  0  0  0  0  0  0  0  0  0
    6.0531  -15.1233   13.4485 C   0  0  0  0  0  0  0  0  0  0  0  0
    7.1588  -14.9950   12.6500 C   0  0  0  0  0  0  0  0  0  0  0  0
  1  2  2  3
  2  3  1  0
  2  4  1  0
  7  4  1  6
  4  5  1  0
  4  8  1  1
  5  6  1  1
  6  7  1  1
  8 14  1  0
  8  9  2  0
  9 10  1  0
 10 11  1  0
 10 12  2  0
 12 13  1  0
 13 14  2  0
M  CHG  1   1   1
M  END
$$$$
