
     RDKit          3D

 14 15  0  0  0  0  0  0  0  0999 V2000
    4.3348  -17.3229   10.4959 N   0  0  0  0  0  4  0  0  0  0  0  0
    5.2990  -16.6100   10.0895 C   0  0  0  0  0  0  0  0  0  0  0  0
    6.5262  -16.6444   10.8073 N   0  0  0  0  0  0  0  0  0  0  0  0
    5.1273  -15.7738    8.8742 C   0  0  2  0  0  0  0  0  0  0  0  0
    5.5703  -14.3192    9.1190 C   0  0  0  0  0  0  0  0  0  0  0  0
    4.1619  -14.0453    9.5799 C   0  0  0  0  0  0  0  0  0  0  0  0
    3.7504  -15.2485    8.7159 C   0  0  0  0  0  0  0  0  0  0  0  0
    5.7871  -16.3277    7.6975 C   0  0  0  0  0  0  0  0  0  0  0  0
    5.2421  -17.2476    6.8411 C   0  0  0  0  0  0  0  0  0  0  0  0
    5.9614  -17.7134    5.7357 C   0  0  0  0  0  0  0  0  0  0  0  0
    5.2259  -18.8808    4.6789 Cl  0  0  0  0  0  0  0  0  0  0  0  0
    7.2365  -17.2661    5.4706 C   0  0  0  0  0  0  0  0  0  0  0  0
    7.7924  -16.3426    6.3244 C   0  0  0  0  0  0  0  0  0  0  0  0
    7.0710  -15.8992    7.4012 C   0  0  0  0  0  0  0  0  0  0  0  0
  1  2  2  3
  2  3  1  0
  2  4  1  0
  7  4  1  6
  4  5  1  0
  4  8  1  6
  5  6  1  1
  6  7  1  1
  8 14  1  0
  8  9  2  0
  9 10  1  0
 10 11  1  0
 10 12  2  0
 12 13  1  0
 13 14  2  0
M  CHG  1   1   1
M  END
$$$$
