
     RDKit          3D

 14 15  0  0  0  0  0  0  0  0999 V2000
    5.9704  -18.1328   12.2679 N   0  0  0  0  0  4  0  0  0  0  0  0
    6.4296  -17.0034   11.9266 C   0  0  0  0  0  0  0  0  0  0  0  0
    6.6771  -16.7528   10.5487 N   0  0  0  0  0  0  0  0  0  0  0  0
    6.6823  -15.9734   12.9662 C   0  0  2  0  0  0  0  0  0  0  0  0
    7.7433  -14.9546   12.5097 C   0  0  0  0  0  0  0  0  0  0  0  0
    8.7784  -15.8825   13.0916 C   0  0  0  0  0  0  0  0  0  0  0  0
    7.6535  -16.4096   13.9973 C   0  0  0  0  0  0  0  0  0  0  0  0
    5.4696  -15.2971   13.4120 C   0  0  0  0  0  0  0  0  0  0  0  0
    5.0077  -15.2635   14.7013 C   0  0  0  0  0  0  0  0  0  0  0  0
    3.8303  -14.5810   15.0243 C   0  0  0  0  0  0  0  0  0  0  0  0
    3.2860  -14.5678   16.6749 Cl  0  0  0  0  0  0  0  0  0  0  0  0
    3.0974  -13.9223   14.0625 C   0  0  0  0  0  0  0  0  0  0  0  0
    3.5526  -13.9504   12.7653 C   0  0  0  0  0  0  0  0  0  0  0  0
    4.7081  -14.6243   12.4701 C   0  0  0  0  0  0  0  0  0  0  0  0
  1  2  2  3
  2  3  1  0
  2  4  1  0
  7  4  1  6
  4  5  1  0
  4  8  1  1
  5  6  1  1
  6  7  1  1
  8 14  1  0
  8  9  2  0
  9 10  1  0
 10 11  1  0
 10 12  2  0
 12 13  1  0
 13 14  2  0
M  CHG  1   1   1
M  END
$$$$
