
     RDKit          3D

 14 15  0  0  0  0  0  0  0  0999 V2000
    8.4946  -17.0027   14.0704 N   0  0  0  0  0  4  0  0  0  0  0  0
    8.4104  -15.7932   14.4353 C   0  0  0  0  0  0  0  0  0  0  0  0
    8.9790  -15.4131   15.6823 N   0  0  0  0  0  0  0  0  0  0  0  0
    7.7370  -14.8087   13.5505 C   0  0  2  0  0  0  0  0  0  0  0  0
    7.8644  -15.1995   12.0662 C   0  0  0  0  0  0  0  0  0  0  0  0
    9.1558  -14.4228   12.0485 C   0  0  0  0  0  0  0  0  0  0  0  0
    8.5817  -13.6323   13.2356 C   0  0  0  0  0  0  0  0  0  0  0  0
    6.3432  -14.5732   13.9088 C   0  0  0  0  0  0  0  0  0  0  0  0
    5.8593  -13.4442   14.5156 C   0  0  0  0  0  0  0  0  0  0  0  0
    4.4988  -13.3169   14.8142 C   0  0  0  0  0  0  0  0  0  0  0  0
    3.9344  -11.8648   15.5846 Cl  0  0  0  0  0  0  0  0  0  0  0  0
    3.6022  -14.3169   14.5107 C   0  0  0  0  0  0  0  0  0  0  0  0
    4.0781  -15.4542   13.9016 C   0  0  0  0  0  0  0  0  0  0  0  0
    5.4141  -15.5589   13.6174 C   0  0  0  0  0  0  0  0  0  0  0  0
  1  2  2  3
  2  3  1  0
  2  4  1  0
  7  4  1  6
  4  5  1  0
  4  8  1  1
  5  6  1  1
  6  7  1  1
  8 14  1  0
  8  9  2  0
  9 10  1  0
 10 11  1  0
 10 12  2  0
 12 13  1  0
 13 14  2  0
M  CHG  1   1   1
M  END
$$$$
