
     RDKit          3D

 23 24  0  0  0  0  0  0  0  0999 V2000
   -6.1667  -32.2051  -14.1166 C   0  0  1  0  0  0  0  0  0  0  0  0
   -6.9487  -32.1781  -12.8058 C   0  0  1  0  0  0  0  0  0  0  0  0
   -7.1785  -30.7758  -12.3157 C   0  0  2  0  0  0  0  0  0  0  0  0
   -7.7060  -29.8586  -13.3814 C   0  0  1  0  0  0  0  0  0  0  0  0
   -7.0715  -30.2389  -14.6886 C   0  0  1  0  0  0  0  0  0  0  0  0
   -6.7776  -29.0384  -15.5593 C   0  0  0  0  0  0  0  0  0  0  0  0
   -6.9298  -32.6981  -15.1454 O   0  0  0  0  0  0  0  0  0  0  0  0
   -8.1378  -32.9018  -12.9075 O   0  0  0  0  0  0  0  0  0  0  0  0
   -5.9522  -30.2486  -11.8889 O   0  0  0  0  0  0  0  0  0  0  0  0
   -9.1039  -29.9396  -13.4775 O   0  0  0  0  0  0  0  0  0  0  0  0
   -5.8617  -30.8785  -14.4241 O   0  0  0  0  0  0  0  0  0  0  0  0
   -5.7871  -29.2777  -16.4838 O   0  0  0  0  0  0  0  0  0  0  0  0
   -6.2863  -33.7531  -15.8358 C   0  0  2  0  0  0  0  0  0  0  0  0
   -7.1406  -34.0582  -17.0225 C   0  0  1  0  0  0  0  0  0  0  0  0
   -7.5691  -35.5289  -16.9958 C   0  0  2  0  0  0  0  0  0  0  0  0
   -6.2459  -36.2828  -16.7973 C   0  0  1  0  0  0  0  0  0  0  0  0
   -5.8519  -35.9939  -15.3707 C   0  0  1  0  0  0  0  0  0  0  0  0
   -4.4010  -36.3451  -15.0973 C   0  0  0  0  0  0  0  0  0  0  0  0
   -8.2605  -33.2401  -17.1279 O   0  0  0  0  0  0  0  0  0  0  0  0
   -8.2112  -35.8950  -18.1461 O   0  0  0  0  0  0  0  0  0  0  0  0
   -6.4446  -37.6398  -17.0245 O   0  0  0  0  0  0  0  0  0  0  0  0
   -6.1456  -34.7524  -14.9329 O   0  0  0  0  0  0  0  0  0  0  0  0
   -4.0010  -35.9594  -13.8307 O   0  0  0  0  0  0  0  0  0  0  0  0
  1  2  1  0
  1  7  1  6
  1 11  1  0
  2  3  1  0
  2  8  1  6
  3  4  1  0
  3  9  1  6
  5  4  1  0
  4 10  1  6
  5  6  1  0
  5 11  1  1
  6 12  1  6
 13  7  1  1
 13 14  1  0
 22 13  1  0
 15 14  1  0
 14 19  1  1
 16 15  1  0
 15 20  1  6
 17 16  1  0
 16 21  1  1
 18 17  1  0
 17 22  1  6
 18 23  1  6
M  END
$$$$
