
     RDKit          3D

 23 24  0  0  0  0  0  0  0  0999 V2000
   -6.4217  -33.6118  -15.9850 C   0  0  1  0  0  0  0  0  0  0  0  0
   -7.6954  -34.4499  -16.0604 C   0  0  1  0  0  0  0  0  0  0  0  0
   -7.4043  -35.8896  -16.3795 C   0  0  2  0  0  0  0  0  0  0  0  0
   -6.3169  -36.4741  -15.5243 C   0  0  1  0  0  0  0  0  0  0  0  0
   -5.2915  -35.4066  -15.2690 C   0  0  1  0  0  0  0  0  0  0  0  0
   -3.8822  -35.9533  -15.2432 C   0  0  0  0  0  0  0  0  0  0  0  0
   -6.2059  -33.1412  -14.7139 O   0  0  0  0  0  0  0  0  0  0  0  0
   -8.4647  -34.3120  -14.9041 O   0  0  0  0  0  0  0  0  0  0  0  0
   -6.9701  -35.9702  -17.7095 O   0  0  0  0  0  0  0  0  0  0  0  0
   -6.8279  -36.9580  -14.3100 O   0  0  0  0  0  0  0  0  0  0  0  0
   -5.3644  -34.4677  -16.2964 O   0  0  0  0  0  0  0  0  0  0  0  0
   -3.2140  -35.7659  -16.4312 O   0  0  0  0  0  0  0  0  0  0  0  0
   -6.1667  -31.7271  -14.6624 C   0  0  2  0  0  0  0  0  0  0  0  0
   -6.1550  -31.3620  -13.2141 C   0  0  1  0  0  0  0  0  0  0  0  0
   -7.3446  -30.4513  -12.8934 C   0  0  2  0  0  0  0  0  0  0  0  0
   -7.2463  -29.3477  -13.9568 C   0  0  1  0  0  0  0  0  0  0  0  0
   -7.6431  -30.0224  -15.2456 C   0  0  1  0  0  0  0  0  0  0  0  0
   -7.2592  -29.2000  -16.4619 C   0  0  0  0  0  0  0  0  0  0  0  0
   -6.1566  -32.4615  -12.3622 O   0  0  0  0  0  0  0  0  0  0  0  0
   -7.2810  -29.9569  -11.6203 O   0  0  0  0  0  0  0  0  0  0  0  0
   -8.1011  -28.3030  -13.6241 O   0  0  0  0  0  0  0  0  0  0  0  0
   -7.2383  -31.3026  -15.3730 O   0  0  0  0  0  0  0  0  0  0  0  0
   -6.7309  -27.9700  -16.1140 O   0  0  0  0  0  0  0  0  0  0  0  0
  1  2  1  0
  1  7  1  1
  1 11  1  0
  2  3  1  0
  2  8  1  1
  3  4  1  0
  3  9  1  6
  5  4  1  0
  4 10  1  1
  5  6  1  0
  5 11  1  6
  6 12  1  6
 13  7  1  1
 13 14  1  0
 22 13  1  0
 15 14  1  0
 14 19  1  1
 16 15  1  0
 15 20  1  1
 17 16  1  0
 16 21  1  1
 18 17  1  0
 17 22  1  6
 18 23  1  6
M  END
$$$$
