
     RDKit          3D

 23 24  0  0  0  0  0  0  0  0999 V2000
   -6.2464  -31.9629  -14.5256 C   0  0  1  0  0  0  0  0  0  0  0  0
   -6.5696  -31.6905  -13.0587 C   0  0  1  0  0  0  0  0  0  0  0  0
   -6.9239  -30.2497  -12.8181 C   0  0  2  0  0  0  0  0  0  0  0  0
   -7.9363  -29.7214  -13.7935 C   0  0  1  0  0  0  0  0  0  0  0  0
   -7.6747  -30.3495  -15.1326 C   0  0  1  0  0  0  0  0  0  0  0  0
   -7.9243  -29.3943  -16.2777 C   0  0  0  0  0  0  0  0  0  0  0  0
   -7.1704  -32.8032  -15.0947 O   0  0  0  0  0  0  0  0  0  0  0  0
   -7.5520  -32.5606  -12.5838 O   0  0  0  0  0  0  0  0  0  0  0  0
   -5.7647  -29.4767  -12.9690 O   0  0  0  0  0  0  0  0  0  0  0  0
   -9.2452  -30.0023  -13.3719 O   0  0  0  0  0  0  0  0  0  0  0  0
   -6.3370  -30.7370  -15.1862 O   0  0  0  0  0  0  0  0  0  0  0  0
   -7.1036  -28.2906  -16.2421 O   0  0  0  0  0  0  0  0  0  0  0  0
   -6.5665  -33.8218  -15.8703 C   0  0  2  0  0  0  0  0  0  0  0  0
   -7.6852  -34.5986  -16.4837 C   0  0  1  0  0  0  0  0  0  0  0  0
   -7.5794  -36.0741  -16.0849 C   0  0  2  0  0  0  0  0  0  0  0  0
   -6.1263  -36.4335  -16.4280 C   0  0  1  0  0  0  0  0  0  0  0  0
   -5.3001  -35.7170  -15.3898 C   0  0  1  0  0  0  0  0  0  0  0  0
   -3.8337  -35.6497  -15.7746 C   0  0  0  0  0  0  0  0  0  0  0  0
   -8.9463  -34.1092  -16.1601 O   0  0  0  0  0  0  0  0  0  0  0  0
   -8.4821  -36.8508  -16.7567 O   0  0  0  0  0  0  0  0  0  0  0  0
   -5.9622  -37.8128  -16.3720 O   0  0  0  0  0  0  0  0  0  0  0  0
   -5.7650  -34.5061  -15.0200 O   0  0  0  0  0  0  0  0  0  0  0  0
   -3.1528  -36.8056  -15.4380 O   0  0  0  0  0  0  0  0  0  0  0  0
  1  2  1  0
  1  7  1  6
  1 11  1  0
  2  3  1  0
  2  8  1  6
  3  4  1  0
  3  9  1  6
  5  4  1  0
  4 10  1  1
  5  6  1  0
  5 11  1  1
  6 12  1  6
 13  7  1  1
 13 14  1  0
 22 13  1  0
 15 14  1  0
 14 19  1  1
 16 15  1  0
 15 20  1  6
 17 16  1  0
 16 21  1  1
 18 17  1  0
 17 22  1  6
 18 23  1  6
M  END
$$$$
