
     RDKit          3D

 23 24  0  0  0  0  0  0  0  0999 V2000
   -6.2198  -34.1058  -15.5286 C   0  0  1  0  0  0  0  0  0  0  0  0
   -6.9049  -34.4237  -16.8091 C   0  0  1  0  0  0  0  0  0  0  0  0
   -7.4502  -35.8582  -16.8077 C   0  0  2  0  0  0  0  0  0  0  0  0
   -6.2046  -36.7047  -16.6034 C   0  0  1  0  0  0  0  0  0  0  0  0
   -5.6769  -36.3681  -15.2503 C   0  0  1  0  0  0  0  0  0  0  0  0
   -4.3586  -37.1365  -15.0792 C   0  0  0  0  0  0  0  0  0  0  0  0
   -7.1860  -33.6643  -14.6354 O   0  0  0  0  0  0  0  0  0  0  0  0
   -7.9570  -33.5858  -17.1094 O   0  0  0  0  0  0  0  0  0  0  0  0
   -8.0205  -36.1445  -18.0378 O   0  0  0  0  0  0  0  0  0  0  0  0
   -6.5727  -38.0639  -16.5893 O   0  0  0  0  0  0  0  0  0  0  0  0
   -5.5318  -35.0899  -14.9272 O   0  0  0  0  0  0  0  0  0  0  0  0
   -3.4749  -36.5941  -16.0052 O   0  0  0  0  0  0  0  0  0  0  0  0
   -7.1193  -32.3535  -14.2823 C   0  0  2  0  0  0  0  0  0  0  0  0
   -8.2760  -31.8062  -13.5206 C   0  0  1  0  0  0  0  0  0  0  0  0
   -7.8630  -30.4405  -12.9758 C   0  0  2  0  0  0  0  0  0  0  0  0
   -6.9293  -29.7353  -13.9301 C   0  0  1  0  0  0  0  0  0  0  0  0
   -7.1716  -30.2784  -15.3041 C   0  0  1  0  0  0  0  0  0  0  0  0
   -6.3118  -29.4552  -16.2690 C   0  0  0  0  0  0  0  0  0  0  0  0
   -9.4037  -31.5999  -14.3101 O   0  0  0  0  0  0  0  0  0  0  0  0
   -7.1340  -30.6334  -11.7815 O   0  0  0  0  0  0  0  0  0  0  0  0
   -7.1489  -28.3608  -13.9610 O   0  0  0  0  0  0  0  0  0  0  0  0
   -6.9314  -31.6133  -15.4491 O   0  0  0  0  0  0  0  0  0  0  0  0
   -4.9559  -29.8285  -16.1440 O   0  0  0  0  0  0  0  0  0  0  0  0
  1  2  1  0
  1  7  1  1
  1 11  1  0
  2  3  1  0
  2  8  1  1
  3  4  1  0
  3  9  1  6
  5  4  1  0
  4 10  1  1
  5  6  1  6
 11  5  1  0
  6 12  1  0
 13  7  1  6
 13 14  1  0
 22 13  1  0
 15 14  1  0
 14 19  1  6
 16 15  1  0
 15 20  1  1
 17 16  1  0
 16 21  1  6
 17 18  1  6
 17 22  1  0
 23 18  1  0
M  END
$$$$
