
     RDKit          3D

 23 24  0  0  0  0  0  0  0  0999 V2000
   -6.3776  -32.1275  -14.7970 C   0  0  1  0  0  0  0  0  0  0  0  0
   -6.7754  -31.8520  -13.3913 C   0  0  1  0  0  0  0  0  0  0  0  0
   -7.7181  -30.6441  -13.3059 C   0  0  2  0  0  0  0  0  0  0  0  0
   -6.8909  -29.5135  -13.8950 C   0  0  1  0  0  0  0  0  0  0  0  0
   -6.6501  -29.8609  -15.3247 C   0  0  1  0  0  0  0  0  0  0  0  0
   -5.7236  -28.7795  -15.8991 C   0  0  0  0  0  0  0  0  0  0  0  0
   -7.3551  -32.9379  -15.3574 O   0  0  0  0  0  0  0  0  0  0  0  0
   -7.4034  -32.9070  -12.7655 O   0  0  0  0  0  0  0  0  0  0  0  0
   -8.0139  -30.3728  -11.9795 O   0  0  0  0  0  0  0  0  0  0  0  0
   -7.6513  -28.3285  -13.8684 O   0  0  0  0  0  0  0  0  0  0  0  0
   -6.2054  -31.0762  -15.6148 O   0  0  0  0  0  0  0  0  0  0  0  0
   -4.7316  -29.4561  -16.5997 O   0  0  0  0  0  0  0  0  0  0  0  0
   -6.9263  -34.1157  -15.8825 C   0  0  2  0  0  0  0  0  0  0  0  0
   -7.9719  -35.0255  -16.4273 C   0  0  1  0  0  0  0  0  0  0  0  0
   -7.2613  -36.1185  -17.2229 C   0  0  2  0  0  0  0  0  0  0  0  0
   -5.9275  -36.4606  -16.6035 C   0  0  1  0  0  0  0  0  0  0  0  0
   -5.9821  -36.0977  -15.1520 C   0  0  1  0  0  0  0  0  0  0  0  0
   -4.6707  -36.5770  -14.5209 C   0  0  0  0  0  0  0  0  0  0  0  0
   -8.7114  -35.6655  -15.4367 O   0  0  0  0  0  0  0  0  0  0  0  0
   -6.9804  -35.6244  -18.5159 O   0  0  0  0  0  0  0  0  0  0  0  0
   -5.6350  -37.8183  -16.7015 O   0  0  0  0  0  0  0  0  0  0  0  0
   -6.1967  -34.7755  -14.8940 O   0  0  0  0  0  0  0  0  0  0  0  0
   -3.5766  -35.9242  -15.1295 O   0  0  0  0  0  0  0  0  0  0  0  0
  1  2  1  0
  1  7  1  6
  1 11  1  0
  2  3  1  0
  2  8  1  6
  3  4  1  0
  3  9  1  1
  5  4  1  0
  4 10  1  6
  5  6  1  1
 11  5  1  0
  6 12  1  0
 13  7  1  1
 13 14  1  0
 22 13  1  0
 15 14  1  0
 14 19  1  1
 16 15  1  0
 15 20  1  6
 17 16  1  0
 16 21  1  1
 17 18  1  6
 17 22  1  0
 23 18  1  0
M  END
$$$$
