
     RDKit          3D

 23 24  0  0  0  0  0  0  0  0999 V2000
   -6.3890  -32.0806  -14.7554 C   0  0  1  0  0  0  0  0  0  0  0  0
   -6.6670  -31.6001  -13.3762 C   0  0  1  0  0  0  0  0  0  0  0  0
   -7.6047  -30.3853  -13.3882 C   0  0  2  0  0  0  0  0  0  0  0  0
   -6.8359  -29.3592  -14.2039 C   0  0  1  0  0  0  0  0  0  0  0  0
   -6.7160  -29.9130  -15.5829 C   0  0  1  0  0  0  0  0  0  0  0  0
   -5.8467  -28.9340  -16.3853 C   0  0  0  0  0  0  0  0  0  0  0  0
   -7.4069  -32.9563  -15.1067 O   0  0  0  0  0  0  0  0  0  0  0  0
   -7.2347  -32.5478  -12.5523 O   0  0  0  0  0  0  0  0  0  0  0  0
   -7.7879  -29.9214  -12.0953 O   0  0  0  0  0  0  0  0  0  0  0  0
   -7.5968  -28.1771  -14.2860 O   0  0  0  0  0  0  0  0  0  0  0  0
   -6.2918  -31.1611  -15.7294 O   0  0  0  0  0  0  0  0  0  0  0  0
   -4.5302  -29.3274  -16.1739 O   0  0  0  0  0  0  0  0  0  0  0  0
   -7.0204  -34.1093  -15.7136 C   0  0  2  0  0  0  0  0  0  0  0  0
   -8.1054  -34.9968  -16.2165 C   0  0  1  0  0  0  0  0  0  0  0  0
   -7.4586  -36.0526  -17.1105 C   0  0  2  0  0  0  0  0  0  0  0  0
   -6.0820  -36.4184  -16.6097 C   0  0  1  0  0  0  0  0  0  0  0  0
   -6.0258  -36.1190  -15.1438 C   0  0  1  0  0  0  0  0  0  0  0  0
   -4.6708  -36.6226  -14.6355 C   0  0  0  0  0  0  0  0  0  0  0  0
   -8.7683  -35.6808  -15.2014 O   0  0  0  0  0  0  0  0  0  0  0  0
   -7.2760  -35.5021  -18.3984 O   0  0  0  0  0  0  0  0  0  0  0  0
   -5.7993  -37.7699  -16.7885 O   0  0  0  0  0  0  0  0  0  0  0  0
   -6.2187  -34.8099  -14.8129 O   0  0  0  0  0  0  0  0  0  0  0  0
   -3.6259  -35.9975  -15.3504 O   0  0  0  0  0  0  0  0  0  0  0  0
  1  2  1  0
  1  7  1  6
  1 11  1  0
  2  3  1  0
  2  8  1  1
  3  4  1  0
  3  9  1  1
  5  4  1  0
  4 10  1  6
  5  6  1  6
 11  5  1  0
  6 12  1  0
 13  7  1  1
 13 14  1  0
 22 13  1  0
 15 14  1  0
 14 19  1  1
 16 15  1  0
 15 20  1  6
 17 16  1  0
 16 21  1  1
 17 18  1  6
 17 22  1  0
 23 18  1  0
M  END
$$$$
