
     RDKit          3D

 23 24  0  0  0  0  0  0  0  0999 V2000
   -6.2123  -32.5304  -14.2865 C   0  0  1  0  0  0  0  0  0  0  0  0
   -6.9444  -31.9304  -13.1401 C   0  0  1  0  0  0  0  0  0  0  0  0
   -7.4828  -30.5368  -13.4913 C   0  0  2  0  0  0  0  0  0  0  0  0
   -6.2266  -29.7543  -13.8365 C   0  0  1  0  0  0  0  0  0  0  0  0
   -5.6491  -30.3899  -15.0552 C   0  0  1  0  0  0  0  0  0  0  0  0
   -4.3218  -29.6753  -15.3475 C   0  0  0  0  0  0  0  0  0  0  0  0
   -7.1457  -33.1693  -15.0909 O   0  0  0  0  0  0  0  0  0  0  0  0
   -8.0108  -32.6818  -12.6961 O   0  0  0  0  0  0  0  0  0  0  0  0
   -8.0984  -29.9787  -12.3823 O   0  0  0  0  0  0  0  0  0  0  0  0
   -6.5878  -28.4361  -14.1759 O   0  0  0  0  0  0  0  0  0  0  0  0
   -5.4975  -31.7073  -15.0709 O   0  0  0  0  0  0  0  0  0  0  0  0
   -3.6672  -30.4537  -16.2953 O   0  0  0  0  0  0  0  0  0  0  0  0
   -6.6791  -34.1979  -15.8467 C   0  0  2  0  0  0  0  0  0  0  0  0
   -7.4332  -34.5082  -17.0929 C   0  0  1  0  0  0  0  0  0  0  0  0
   -6.5796  -35.4672  -17.9201 C   0  0  2  0  0  0  0  0  0  0  0  0
   -5.7856  -36.3928  -17.0298 C   0  0  1  0  0  0  0  0  0  0  0  0
   -6.4987  -36.5009  -15.7178 C   0  0  1  0  0  0  0  0  0  0  0  0
   -5.7485  -37.5459  -14.8852 C   0  0  0  0  0  0  0  0  0  0  0  0
   -8.6443  -35.1515  -16.8545 O   0  0  0  0  0  0  0  0  0  0  0  0
   -5.6332  -34.7137  -18.6491 O   0  0  0  0  0  0  0  0  0  0  0  0
   -5.6714  -37.6713  -17.5692 O   0  0  0  0  0  0  0  0  0  0  0  0
   -6.6298  -35.3289  -15.0323 O   0  0  0  0  0  0  0  0  0  0  0  0
   -4.4215  -37.1196  -14.6597 O   0  0  0  0  0  0  0  0  0  0  0  0
  1  2  1  0
  1  7  1  6
  1 11  1  0
  2  3  1  0
  2  8  1  6
  3  4  1  0
  3  9  1  1
  5  4  1  0
  4 10  1  6
  5  6  1  1
 11  5  1  0
  6 12  1  0
 13  7  1  1
 13 14  1  0
 22 13  1  0
 15 14  1  0
 14 19  1  1
 16 15  1  0
 15 20  1  1
 17 16  1  0
 16 21  1  6
 17 18  1  1
 17 22  1  0
 23 18  1  0
M  END
$$$$
