
     RDKit          3D

 23 24  0  0  0  0  0  0  0  0999 V2000
   -5.9895  -34.1527  -15.4101 C   0  0  1  0  0  0  0  0  0  0  0  0
   -6.7487  -34.3396  -16.6745 C   0  0  1  0  0  0  0  0  0  0  0  0
   -7.4146  -35.7213  -16.7252 C   0  0  2  0  0  0  0  0  0  0  0  0
   -6.2393  -36.6790  -16.6205 C   0  0  1  0  0  0  0  0  0  0  0  0
   -5.6323  -36.4645  -15.2758 C   0  0  1  0  0  0  0  0  0  0  0  0
   -4.3791  -37.3488  -15.2032 C   0  0  0  0  0  0  0  0  0  0  0  0
   -6.8787  -33.6831  -14.4535 O   0  0  0  0  0  0  0  0  0  0  0  0
   -7.7359  -33.4010  -16.8839 O   0  0  0  0  0  0  0  0  0  0  0  0
   -8.0549  -35.8890  -17.9427 O   0  0  0  0  0  0  0  0  0  0  0  0
   -6.7218  -38.0013  -16.6623 O   0  0  0  0  0  0  0  0  0  0  0  0
   -5.3656  -35.2233  -14.8921 O   0  0  0  0  0  0  0  0  0  0  0  0
   -3.3255  -36.5592  -15.6493 O   0  0  0  0  0  0  0  0  0  0  0  0
   -6.7227  -32.3863  -14.0779 C   0  0  2  0  0  0  0  0  0  0  0  0
   -7.7892  -31.8069  -13.2149 C   0  0  1  0  0  0  0  0  0  0  0  0
   -7.2708  -30.4758  -12.6745 C   0  0  2  0  0  0  0  0  0  0  0  0
   -6.3823  -29.7893  -13.6839 C   0  0  1  0  0  0  0  0  0  0  0  0
   -6.7566  -30.2852  -15.0461 C   0  0  1  0  0  0  0  0  0  0  0  0
   -5.9369  -29.4772  -16.0576 C   0  0  0  0  0  0  0  0  0  0  0  0
   -8.9641  -31.5293  -13.9078 O   0  0  0  0  0  0  0  0  0  0  0  0
   -6.4606  -30.7324  -11.5463 O   0  0  0  0  0  0  0  0  0  0  0  0
   -6.5383  -28.4059  -13.6668 O   0  0  0  0  0  0  0  0  0  0  0  0
   -6.5918  -31.6254  -15.2392 O   0  0  0  0  0  0  0  0  0  0  0  0
   -4.6188  -29.3053  -15.5816 O   0  0  0  0  0  0  0  0  0  0  0  0
  1  2  1  0
  1  7  1  1
  1 11  1  0
  2  3  1  0
  2  8  1  1
  3  4  1  0
  3  9  1  6
  5  4  1  0
  4 10  1  1
  5  6  1  6
 11  5  1  0
  6 12  1  0
 13  7  1  6
 13 14  1  0
 22 13  1  0
 15 14  1  0
 14 19  1  6
 16 15  1  0
 15 20  1  1
 17 16  1  0
 16 21  1  6
 17 18  1  6
 17 22  1  0
 23 18  1  0
M  END
$$$$
