
     RDKit          3D

 23 24  0  0  0  0  0  0  0  0999 V2000
   -6.2751  -32.3048  -13.9794 C   0  0  1  0  0  0  0  0  0  0  0  0
   -7.5258  -32.1015  -13.1281 C   0  0  1  0  0  0  0  0  0  0  0  0
   -7.6445  -30.6883  -12.6299 C   0  0  2  0  0  0  0  0  0  0  0  0
   -7.4463  -29.6644  -13.7105 C   0  0  1  0  0  0  0  0  0  0  0  0
   -6.4007  -30.1758  -14.6599 C   0  0  1  0  0  0  0  0  0  0  0  0
   -5.5096  -29.0738  -15.1866 C   0  0  0  0  0  0  0  0  0  0  0  0
   -6.5970  -32.5947  -15.2818 O   0  0  0  0  0  0  0  0  0  0  0  0
   -8.6740  -32.5203  -13.8020 O   0  0  0  0  0  0  0  0  0  0  0  0
   -6.6474  -30.4713  -11.6694 O   0  0  0  0  0  0  0  0  0  0  0  0
   -8.6436  -29.4094  -14.3970 O   0  0  0  0  0  0  0  0  0  0  0  0
   -5.5937  -31.0870  -13.9809 O   0  0  0  0  0  0  0  0  0  0  0  0
   -4.2919  -29.0197  -14.5485 O   0  0  0  0  0  0  0  0  0  0  0  0
   -6.0308  -33.8168  -15.7174 C   0  0  2  0  0  0  0  0  0  0  0  0
   -6.5643  -34.0580  -17.0916 C   0  0  1  0  0  0  0  0  0  0  0  0
   -7.2913  -35.4057  -17.1426 C   0  0  2  0  0  0  0  0  0  0  0  0
   -6.2726  -36.3840  -16.5397 C   0  0  1  0  0  0  0  0  0  0  0  0
   -6.2401  -36.0448  -15.0708 C   0  0  1  0  0  0  0  0  0  0  0  0
   -5.0356  -36.6485  -14.3723 C   0  0  0  0  0  0  0  0  0  0  0  0
   -7.4051  -33.0483  -17.5481 O   0  0  0  0  0  0  0  0  0  0  0  0
   -7.6497  -35.7449  -18.4177 O   0  0  0  0  0  0  0  0  0  0  0  0
   -6.6891  -37.6903  -16.7696 O   0  0  0  0  0  0  0  0  0  0  0  0
   -6.3682  -34.7340  -14.7801 O   0  0  0  0  0  0  0  0  0  0  0  0
   -4.1212  -37.1715  -15.2685 O   0  0  0  0  0  0  0  0  0  0  0  0
  1  2  1  0
  1  7  1  6
  1 11  1  0
  2  3  1  0
  2  8  1  6
  3  4  1  0
  3  9  1  1
  5  4  1  0
  4 10  1  6
  5  6  1  0
  5 11  1  1
  6 12  1  6
 13  7  1  1
 13 14  1  0
 22 13  1  0
 15 14  1  0
 14 19  1  1
 16 15  1  0
 15 20  1  6
 17 16  1  0
 16 21  1  1
 18 17  1  0
 17 22  1  6
 18 23  1  6
M  END
$$$$
