
     RDKit          3D

 23 24  0  0  0  0  0  0  0  0999 V2000
   -5.8525  -31.7352  -14.5381 C   0  0  1  0  0  0  0  0  0  0  0  0
   -6.1314  -31.7050  -13.0376 C   0  0  1  0  0  0  0  0  0  0  0  0
   -6.4285  -30.3154  -12.5477 C   0  0  2  0  0  0  0  0  0  0  0  0
   -7.4440  -29.5985  -13.3903 C   0  0  1  0  0  0  0  0  0  0  0  0
   -7.2363  -29.9987  -14.8231 C   0  0  1  0  0  0  0  0  0  0  0  0
   -7.4785  -28.8563  -15.7833 C   0  0  0  0  0  0  0  0  0  0  0  0
   -6.8189  -32.4379  -15.2135 O   0  0  0  0  0  0  0  0  0  0  0  0
   -7.1328  -32.6120  -12.6876 O   0  0  0  0  0  0  0  0  0  0  0  0
   -5.2464  -29.5645  -12.5998 O   0  0  0  0  0  0  0  0  0  0  0  0
   -8.7519  -29.9059  -12.9842 O   0  0  0  0  0  0  0  0  0  0  0  0
   -5.9149  -30.4130  -14.9801 O   0  0  0  0  0  0  0  0  0  0  0  0
   -6.4964  -28.7446  -16.7403 O   0  0  0  0  0  0  0  0  0  0  0  0
   -6.2830  -33.5269  -15.9420 C   0  0  2  0  0  0  0  0  0  0  0  0
   -7.4444  -34.2108  -16.5859 C   0  0  1  0  0  0  0  0  0  0  0  0
   -7.4938  -35.6796  -16.1529 C   0  0  2  0  0  0  0  0  0  0  0  0
   -6.0684  -36.1809  -16.4272 C   0  0  1  0  0  0  0  0  0  0  0  0
   -5.2206  -35.5195  -15.3701 C   0  0  1  0  0  0  0  0  0  0  0  0
   -3.7401  -35.5984  -15.6942 C   0  0  0  0  0  0  0  0  0  0  0  0
   -8.6658  -33.5985  -16.3256 O   0  0  0  0  0  0  0  0  0  0  0  0
   -8.4380  -36.3850  -16.8459 O   0  0  0  0  0  0  0  0  0  0  0  0
   -6.0370  -37.5678  -16.3362 O   0  0  0  0  0  0  0  0  0  0  0  0
   -5.5840  -34.2620  -15.0450 O   0  0  0  0  0  0  0  0  0  0  0  0
   -2.9568  -35.0633  -14.6877 O   0  0  0  0  0  0  0  0  0  0  0  0
  1  2  1  0
  1  7  1  6
  1 11  1  0
  2  3  1  0
  2  8  1  6
  3  4  1  0
  3  9  1  6
  5  4  1  0
  4 10  1  1
  5  6  1  0
  5 11  1  1
  6 12  1  6
 13  7  1  1
 13 14  1  0
 22 13  1  0
 15 14  1  0
 14 19  1  1
 16 15  1  0
 15 20  1  6
 17 16  1  0
 16 21  1  1
 18 17  1  0
 17 22  1  6
 18 23  1  6
M  END
$$$$
