
     RDKit          3D

 23 24  0  0  0  0  0  0  0  0999 V2000
   -6.3251  -32.4409  -14.2557 C   0  0  1  0  0  0  0  0  0  0  0  0
   -7.2522  -32.0550  -13.1060 C   0  0  1  0  0  0  0  0  0  0  0  0
   -7.1970  -30.5827  -12.8078 C   0  0  2  0  0  0  0  0  0  0  0  0
   -7.3285  -29.7279  -14.0356 C   0  0  1  0  0  0  0  0  0  0  0  0
   -6.6301  -30.4207  -15.1707 C   0  0  1  0  0  0  0  0  0  0  0  0
   -5.9315  -29.4515  -16.0972 C   0  0  0  0  0  0  0  0  0  0  0  0
   -7.0339  -32.8872  -15.3430 O   0  0  0  0  0  0  0  0  0  0  0  0
   -8.5562  -32.4976  -13.3330 O   0  0  0  0  0  0  0  0  0  0  0  0
   -5.9511  -30.2924  -12.2357 O   0  0  0  0  0  0  0  0  0  0  0  0
   -8.6758  -29.5030  -14.3582 O   0  0  0  0  0  0  0  0  0  0  0  0
   -5.6637  -31.2741  -14.6412 O   0  0  0  0  0  0  0  0  0  0  0  0
   -6.4023  -28.1641  -15.9783 O   0  0  0  0  0  0  0  0  0  0  0  0
   -6.3815  -33.9505  -16.0120 C   0  0  2  0  0  0  0  0  0  0  0  0
   -7.2310  -34.2840  -17.1945 C   0  0  1  0  0  0  0  0  0  0  0  0
   -7.6493  -35.7569  -17.1409 C   0  0  2  0  0  0  0  0  0  0  0  0
   -6.3214  -36.4976  -16.9253 C   0  0  1  0  0  0  0  0  0  0  0  0
   -5.9325  -36.1790  -15.5037 C   0  0  1  0  0  0  0  0  0  0  0  0
   -4.4799  -36.5149  -15.2206 C   0  0  0  0  0  0  0  0  0  0  0  0
   -8.3564  -33.4758  -17.3177 O   0  0  0  0  0  0  0  0  0  0  0  0
   -8.2862  -36.1491  -18.2854 O   0  0  0  0  0  0  0  0  0  0  0  0
   -6.5101  -37.8600  -17.1273 O   0  0  0  0  0  0  0  0  0  0  0  0
   -6.2359  -34.9316  -15.0901 O   0  0  0  0  0  0  0  0  0  0  0  0
   -3.9972  -35.8466  -14.1099 O   0  0  0  0  0  0  0  0  0  0  0  0
  1  2  1  0
  1  7  1  6
  1 11  1  0
  2  3  1  0
  2  8  1  6
  3  4  1  0
  3  9  1  6
  5  4  1  0
  4 10  1  6
  5  6  1  0
  5 11  1  1
  6 12  1  6
 13  7  1  1
 13 14  1  0
 22 13  1  0
 15 14  1  0
 14 19  1  1
 16 15  1  0
 15 20  1  6
 17 16  1  0
 16 21  1  1
 18 17  1  0
 17 22  1  6
 18 23  1  6
M  END
$$$$
