
     RDKit          3D

 23 24  0  0  0  0  0  0  0  0999 V2000
   -6.1770  -32.7888  -16.2326 C   0  0  1  0  0  0  0  0  0  0  0  0
   -5.9802  -31.5494  -15.3634 C   0  0  1  0  0  0  0  0  0  0  0  0
   -6.4763  -30.3022  -16.0401 C   0  0  2  0  0  0  0  0  0  0  0  0
   -7.8549  -30.4535  -16.6162 C   0  0  1  0  0  0  0  0  0  0  0  0
   -7.9962  -31.8534  -17.1421 C   0  0  1  0  0  0  0  0  0  0  0  0
   -8.8196  -31.9147  -18.4086 C   0  0  0  0  0  0  0  0  0  0  0  0
   -7.0765  -33.6587  -15.6686 O   0  0  0  0  0  0  0  0  0  0  0  0
   -6.5424  -31.7207  -14.0976 O   0  0  0  0  0  0  0  0  0  0  0  0
   -5.6158  -30.0031  -17.1050 O   0  0  0  0  0  0  0  0  0  0  0  0
   -8.8415  -30.1943  -15.6522 O   0  0  0  0  0  0  0  0  0  0  0  0
   -6.7261  -32.3460  -17.4367 O   0  0  0  0  0  0  0  0  0  0  0  0
   -8.8402  -33.1693  -18.9731 O   0  0  0  0  0  0  0  0  0  0  0  0
   -6.5292  -34.9500  -15.4766 C   0  0  2  0  0  0  0  0  0  0  0  0
   -7.5503  -35.7270  -14.7119 C   0  0  1  0  0  0  0  0  0  0  0  0
   -6.9422  -36.2490  -13.4061 C   0  0  2  0  0  0  0  0  0  0  0  0
   -5.6488  -36.9383  -13.8650 C   0  0  1  0  0  0  0  0  0  0  0  0
   -4.7344  -35.8078  -14.2646 C   0  0  1  0  0  0  0  0  0  0  0  0
   -3.5523  -36.2924  -15.0837 C   0  0  0  0  0  0  0  0  0  0  0  0
   -8.7096  -35.0078  -14.4407 O   0  0  0  0  0  0  0  0  0  0  0  0
   -7.7871  -37.1043  -12.7551 O   0  0  0  0  0  0  0  0  0  0  0  0
   -5.1277  -37.6933  -12.8205 O   0  0  0  0  0  0  0  0  0  0  0  0
   -5.3415  -34.7581  -14.8552 O   0  0  0  0  0  0  0  0  0  0  0  0
   -2.6230  -35.2913  -15.3009 O   0  0  0  0  0  0  0  0  0  0  0  0
  1  2  1  0
  1  7  1  1
  1 11  1  0
  2  3  1  0
  2  8  1  1
  3  4  1  0
  3  9  1  6
  5  4  1  0
  4 10  1  1
  5  6  1  0
  5 11  1  6
  6 12  1  6
 13  7  1  1
 13 14  1  0
 22 13  1  0
 15 14  1  0
 14 19  1  1
 16 15  1  0
 15 20  1  6
 17 16  1  0
 16 21  1  1
 18 17  1  0
 17 22  1  6
 18 23  1  6
M  END
$$$$
