
     RDKit          3D

 23 24  0  0  0  0  0  0  0  0999 V2000
   -6.0617  -34.1105  -15.7541 C   0  0  1  0  0  0  0  0  0  0  0  0
   -7.0594  -34.5635  -16.7588 C   0  0  1  0  0  0  0  0  0  0  0  0
   -7.4304  -36.0378  -16.5496 C   0  0  2  0  0  0  0  0  0  0  0  0
   -6.1007  -36.7574  -16.7038 C   0  0  1  0  0  0  0  0  0  0  0  0
   -5.2328  -36.2954  -15.5832 C   0  0  1  0  0  0  0  0  0  0  0  0
   -3.8518  -36.9329  -15.7933 C   0  0  0  0  0  0  0  0  0  0  0  0
   -6.7594  -33.7034  -14.6254 O   0  0  0  0  0  0  0  0  0  0  0  0
   -8.2330  -33.8410  -16.7540 O   0  0  0  0  0  0  0  0  0  0  0  0
   -8.3075  -36.4462  -17.5418 O   0  0  0  0  0  0  0  0  0  0  0  0
   -6.3073  -38.1405  -16.5382 O   0  0  0  0  0  0  0  0  0  0  0  0
   -5.1297  -34.9925  -15.3578 O   0  0  0  0  0  0  0  0  0  0  0  0
   -2.9376  -35.8857  -15.7690 O   0  0  0  0  0  0  0  0  0  0  0  0
   -6.7597  -32.3682  -14.3722 C   0  0  2  0  0  0  0  0  0  0  0  0
   -7.7654  -31.8735  -13.3915 C   0  0  1  0  0  0  0  0  0  0  0  0
   -7.3931  -30.4354  -13.0368 C   0  0  2  0  0  0  0  0  0  0  0  0
   -6.7860  -29.7239  -14.2220 C   0  0  1  0  0  0  0  0  0  0  0  0
   -7.2736  -30.3962  -15.4677 C   0  0  1  0  0  0  0  0  0  0  0  0
   -6.7535  -29.5754  -16.6525 C   0  0  0  0  0  0  0  0  0  0  0  0
   -9.0592  -31.8392  -13.9037 O   0  0  0  0  0  0  0  0  0  0  0  0
   -6.3940  -30.4617  -12.0387 O   0  0  0  0  0  0  0  0  0  0  0  0
   -7.1579  -28.3833  -14.2775 O   0  0  0  0  0  0  0  0  0  0  0  0
   -6.9263  -31.7096  -15.5901 O   0  0  0  0  0  0  0  0  0  0  0  0
   -5.3950  -29.2473  -16.4516 O   0  0  0  0  0  0  0  0  0  0  0  0
  1  2  1  0
  1  7  1  1
  1 11  1  0
  2  3  1  0
  2  8  1  1
  3  4  1  0
  3  9  1  6
  5  4  1  0
  4 10  1  1
  5  6  1  6
 11  5  1  0
  6 12  1  0
 13  7  1  6
 13 14  1  0
 22 13  1  0
 15 14  1  0
 14 19  1  6
 16 15  1  0
 15 20  1  1
 17 16  1  0
 16 21  1  6
 17 18  1  6
 17 22  1  0
 23 18  1  0
M  END
$$$$
