
     RDKit          3D

 23 24  0  0  0  0  0  0  0  0999 V2000
   -5.7926  -34.0911  -15.8977 C   0  0  1  0  0  0  0  0  0  0  0  0
   -6.6838  -34.4791  -17.0226 C   0  0  1  0  0  0  0  0  0  0  0  0
   -7.1642  -35.9294  -16.8777 C   0  0  2  0  0  0  0  0  0  0  0  0
   -5.8705  -36.7269  -16.8756 C   0  0  1  0  0  0  0  0  0  0  0  0
   -5.1217  -36.3225  -15.6515 C   0  0  1  0  0  0  0  0  0  0  0  0
   -3.7654  -37.0409  -15.6976 C   0  0  0  0  0  0  0  0  0  0  0  0
   -6.5990  -33.6476  -14.8588 O   0  0  0  0  0  0  0  0  0  0  0  0
   -7.8042  -33.6875  -17.1538 O   0  0  0  0  0  0  0  0  0  0  0  0
   -7.9347  -36.2802  -17.9747 O   0  0  0  0  0  0  0  0  0  0  0  0
   -6.1773  -38.0958  -16.7526 O   0  0  0  0  0  0  0  0  0  0  0  0
   -4.9704  -35.0291  -15.4001 O   0  0  0  0  0  0  0  0  0  0  0  0
   -2.8060  -36.0425  -15.8221 O   0  0  0  0  0  0  0  0  0  0  0  0
   -6.4620  -32.3407  -14.5119 C   0  0  2  0  0  0  0  0  0  0  0  0
   -7.4237  -31.8113  -13.5055 C   0  0  1  0  0  0  0  0  0  0  0  0
   -6.9069  -30.4491  -13.0477 C   0  0  2  0  0  0  0  0  0  0  0  0
   -6.2114  -29.7254  -14.1756 C   0  0  1  0  0  0  0  0  0  0  0  0
   -6.7495  -30.2540  -15.4689 C   0  0  1  0  0  0  0  0  0  0  0  0
   -6.1290  -29.4127  -16.5893 C   0  0  0  0  0  0  0  0  0  0  0  0
   -8.6993  -31.6043  -14.0228 O   0  0  0  0  0  0  0  0  0  0  0  0
   -5.9303  -30.6506  -12.0473 O   0  0  0  0  0  0  0  0  0  0  0  0
   -6.4390  -28.3523  -14.1388 O   0  0  0  0  0  0  0  0  0  0  0  0
   -6.5410  -31.5851  -15.6814 O   0  0  0  0  0  0  0  0  0  0  0  0
   -4.7209  -29.4393  -16.4880 O   0  0  0  0  0  0  0  0  0  0  0  0
  1  2  1  0
  1  7  1  1
  1 11  1  0
  2  3  1  0
  2  8  1  1
  3  4  1  0
  3  9  1  6
  5  4  1  0
  4 10  1  1
  5  6  1  6
 11  5  1  0
  6 12  1  0
 13  7  1  6
 13 14  1  0
 22 13  1  0
 15 14  1  0
 14 19  1  6
 16 15  1  0
 15 20  1  1
 17 16  1  0
 16 21  1  1
 17 18  1  6
 17 22  1  0
 23 18  1  0
M  END
$$$$
