
     RDKit          3D

 23 24  0  0  0  0  0  0  0  0999 V2000
   -6.2568  -33.3967  -16.4057 C   0  0  1  0  0  0  0  0  0  0  0  0
   -7.3051  -33.9202  -17.3842 C   0  0  1  0  0  0  0  0  0  0  0  0
   -7.0077  -35.3245  -17.8304 C   0  0  2  0  0  0  0  0  0  0  0  0
   -6.6937  -36.2505  -16.6906 C   0  0  1  0  0  0  0  0  0  0  0  0
   -5.9310  -35.4792  -15.6516 C   0  0  1  0  0  0  0  0  0  0  0  0
   -4.8646  -36.3139  -14.9792 C   0  0  0  0  0  0  0  0  0  0  0  0
   -6.7959  -33.1795  -15.1624 O   0  0  0  0  0  0  0  0  0  0  0  0
   -8.5942  -33.7949  -16.8643 O   0  0  0  0  0  0  0  0  0  0  0  0
   -5.8792  -35.2964  -18.6608 O   0  0  0  0  0  0  0  0  0  0  0  0
   -7.8642  -36.7894  -16.1343 O   0  0  0  0  0  0  0  0  0  0  0  0
   -5.2995  -34.4035  -16.2735 O   0  0  0  0  0  0  0  0  0  0  0  0
   -5.0226  -36.3850  -13.6143 O   0  0  0  0  0  0  0  0  0  0  0  0
   -6.3799  -31.9477  -14.6026 C   0  0  2  0  0  0  0  0  0  0  0  0
   -7.1596  -31.7781  -13.3399 C   0  0  1  0  0  0  0  0  0  0  0  0
   -7.9532  -30.4683  -13.3856 C   0  0  2  0  0  0  0  0  0  0  0  0
   -6.8962  -29.4237  -13.7729 C   0  0  1  0  0  0  0  0  0  0  0  0
   -6.5871  -29.7113  -15.2205 C   0  0  1  0  0  0  0  0  0  0  0  0
   -5.3113  -29.0288  -15.6780 C   0  0  0  0  0  0  0  0  0  0  0  0
   -8.0141  -32.8407  -13.0657 O   0  0  0  0  0  0  0  0  0  0  0  0
   -8.5483  -30.1894  -12.1867 O   0  0  0  0  0  0  0  0  0  0  0  0
   -7.4140  -28.1468  -13.5884 O   0  0  0  0  0  0  0  0  0  0  0  0
   -6.5935  -31.0161  -15.5619 O   0  0  0  0  0  0  0  0  0  0  0  0
   -5.0132  -29.3120  -16.9987 O   0  0  0  0  0  0  0  0  0  0  0  0
  1  2  1  0
  1  7  1  1
  1 11  1  0
  2  3  1  0
  2  8  1  1
  3  4  1  0
  3  9  1  6
  5  4  1  0
  4 10  1  1
  5  6  1  0
  5 11  1  6
  6 12  1  6
 13  7  1  6
 13 14  1  0
 22 13  1  0
 15 14  1  0
 14 19  1  6
 16 15  1  0
 15 20  1  1
 17 16  1  0
 16 21  1  6
 18 17  1  0
 17 22  1  1
 18 23  1  6
M  END
$$$$
