
     RDKit          3D

 23 24  0  0  0  0  0  0  0  0999 V2000
   -6.2118  -33.5743  -15.9430 C   0  0  1  0  0  0  0  0  0  0  0  0
   -7.4912  -34.2407  -16.4426 C   0  0  1  0  0  0  0  0  0  0  0  0
   -7.2668  -35.6777  -16.8218 C   0  0  2  0  0  0  0  0  0  0  0  0
   -6.5217  -36.4538  -15.7740 C   0  0  1  0  0  0  0  0  0  0  0  0
   -5.5068  -35.5431  -15.1440 C   0  0  1  0  0  0  0  0  0  0  0  0
   -4.2208  -36.2603  -14.8010 C   0  0  0  0  0  0  0  0  0  0  0  0
   -6.3109  -33.2294  -14.6182 O   0  0  0  0  0  0  0  0  0  0  0  0
   -8.5329  -34.0947  -15.5253 O   0  0  0  0  0  0  0  0  0  0  0  0
   -6.4916  -35.7127  -17.9888 O   0  0  0  0  0  0  0  0  0  0  0  0
   -7.3940  -36.9594  -14.7976 O   0  0  0  0  0  0  0  0  0  0  0  0
   -5.1995  -34.5290  -16.0493 O   0  0  0  0  0  0  0  0  0  0  0  0
   -3.1004  -35.5735  -15.2084 O   0  0  0  0  0  0  0  0  0  0  0  0
   -6.1342  -31.8407  -14.4084 C   0  0  2  0  0  0  0  0  0  0  0  0
   -6.6790  -31.5510  -13.0481 C   0  0  1  0  0  0  0  0  0  0  0  0
   -7.7818  -30.4914  -13.1397 C   0  0  2  0  0  0  0  0  0  0  0  0
   -7.1277  -29.3646  -13.9528 C   0  0  1  0  0  0  0  0  0  0  0  0
   -7.0324  -29.9110  -15.3550 C   0  0  1  0  0  0  0  0  0  0  0  0
   -6.0895  -29.0969  -16.2217 C   0  0  0  0  0  0  0  0  0  0  0  0
   -7.1579  -32.6778  -12.3881 O   0  0  0  0  0  0  0  0  0  0  0  0
   -8.1925  -30.0733  -11.9044 O   0  0  0  0  0  0  0  0  0  0  0  0
   -7.9176  -28.2226  -13.8850 O   0  0  0  0  0  0  0  0  0  0  0  0
   -6.7610  -31.2294  -15.4414 O   0  0  0  0  0  0  0  0  0  0  0  0
   -4.7620  -29.3807  -15.9571 O   0  0  0  0  0  0  0  0  0  0  0  0
  1  2  1  0
  1  7  1  1
  1 11  1  0
  2  3  1  0
  2  8  1  1
  3  4  1  0
  3  9  1  6
  5  4  1  0
  4 10  1  1
  5  6  1  0
  5 11  1  6
  6 12  1  6
 13  7  1  6
 13 14  1  0
 22 13  1  0
 15 14  1  0
 14 19  1  6
 16 15  1  0
 15 20  1  1
 17 16  1  0
 16 21  1  6
 18 17  1  0
 17 22  1  1
 18 23  1  6
M  END
$$$$
