
     RDKit          3D

 23 24  0  0  0  0  0  0  0  0999 V2000
   -5.9988  -32.4194  -14.5566 C   0  0  1  0  0  0  0  0  0  0  0  0
   -6.7214  -32.1933  -13.2310 C   0  0  1  0  0  0  0  0  0  0  0  0
   -6.9030  -30.7317  -12.9306 C   0  0  2  0  0  0  0  0  0  0  0  0
   -7.4598  -29.9569  -14.0903 C   0  0  1  0  0  0  0  0  0  0  0  0
   -6.8909  -30.5288  -15.3574 C   0  0  1  0  0  0  0  0  0  0  0  0
   -6.6134  -29.4670  -16.3972 C   0  0  0  0  0  0  0  0  0  0  0  0
   -6.8157  -33.0302  -15.4749 O   0  0  0  0  0  0  0  0  0  0  0  0
   -7.9272  -32.8945  -13.1825 O   0  0  0  0  0  0  0  0  0  0  0  0
   -5.6494  -30.1812  -12.6317 O   0  0  0  0  0  0  0  0  0  0  0  0
   -8.8619  -30.0158  -14.1166 O   0  0  0  0  0  0  0  0  0  0  0  0
   -5.6829  -31.1556  -15.0570 O   0  0  0  0  0  0  0  0  0  0  0  0
   -5.4690  -29.7127  -17.1204 O   0  0  0  0  0  0  0  0  0  0  0  0
   -6.1789  -34.1140  -16.1257 C   0  0  2  0  0  0  0  0  0  0  0  0
   -7.1665  -34.6485  -17.1107 C   0  0  1  0  0  0  0  0  0  0  0  0
   -7.4329  -36.1316  -16.8337 C   0  0  2  0  0  0  0  0  0  0  0  0
   -6.0247  -36.7401  -16.7621 C   0  0  1  0  0  0  0  0  0  0  0  0
   -5.4519  -36.2263  -15.4654 C   0  0  1  0  0  0  0  0  0  0  0  0
   -3.9482  -36.4166  -15.3908 C   0  0  0  0  0  0  0  0  0  0  0  0
   -8.3674  -33.9471  -17.1322 O   0  0  0  0  0  0  0  0  0  0  0  0
   -8.2001  -36.7039  -17.8102 O   0  0  0  0  0  0  0  0  0  0  0  0
   -6.1152  -38.1272  -16.7851 O   0  0  0  0  0  0  0  0  0  0  0  0
   -5.8020  -34.9646  -15.1418 O   0  0  0  0  0  0  0  0  0  0  0  0
   -3.3576  -35.5533  -14.4857 O   0  0  0  0  0  0  0  0  0  0  0  0
  1  2  1  0
  1  7  1  6
  1 11  1  0
  2  3  1  0
  2  8  1  6
  3  4  1  0
  3  9  1  6
  5  4  1  0
  4 10  1  6
  5  6  1  0
  5 11  1  1
  6 12  1  6
 13  7  1  1
 13 14  1  0
 22 13  1  0
 15 14  1  0
 14 19  1  1
 16 15  1  0
 15 20  1  6
 17 16  1  0
 16 21  1  1
 18 17  1  0
 17 22  1  6
 18 23  1  6
M  END
$$$$
