
     RDKit          3D

 23 24  0  0  0  0  0  0  0  0999 V2000
   -6.4113  -33.7042  -16.0641 C   0  0  1  0  0  0  0  0  0  0  0  0
   -7.5499  -34.4629  -16.7411 C   0  0  1  0  0  0  0  0  0  0  0  0
   -7.1718  -35.8834  -17.0553 C   0  0  2  0  0  0  0  0  0  0  0  0
   -6.5452  -36.5970  -15.8919 C   0  0  1  0  0  0  0  0  0  0  0  0
   -5.7041  -35.6123  -15.1310 C   0  0  1  0  0  0  0  0  0  0  0  0
   -4.4400  -36.2342  -14.5825 C   0  0  0  0  0  0  0  0  0  0  0  0
   -6.7362  -33.3572  -14.7765 O   0  0  0  0  0  0  0  0  0  0  0  0
   -8.7278  -34.3840  -15.9966 O   0  0  0  0  0  0  0  0  0  0  0  0
   -6.2259  -35.8723  -18.0893 O   0  0  0  0  0  0  0  0  0  0  0  0
   -7.5205  -37.1555  -15.0512 O   0  0  0  0  0  0  0  0  0  0  0  0
   -5.3316  -34.5857  -15.9970 O   0  0  0  0  0  0  0  0  0  0  0  0
   -3.9510  -37.2434  -15.3796 O   0  0  0  0  0  0  0  0  0  0  0  0
   -6.4932  -31.9884  -14.5098 C   0  0  2  0  0  0  0  0  0  0  0  0
   -6.9009  -31.7603  -13.0911 C   0  0  1  0  0  0  0  0  0  0  0  0
   -7.9701  -30.6652  -13.0224 C   0  0  2  0  0  0  0  0  0  0  0  0
   -7.3546  -29.5139  -13.8312 C   0  0  1  0  0  0  0  0  0  0  0  0
   -7.4068  -29.9825  -15.2635 C   0  0  1  0  0  0  0  0  0  0  0  0
   -6.5196  -29.1487  -16.1693 C   0  0  0  0  0  0  0  0  0  0  0  0
   -7.3562  -32.9081  -12.4508 O   0  0  0  0  0  0  0  0  0  0  0  0
   -8.2514  -30.3059  -11.7335 O   0  0  0  0  0  0  0  0  0  0  0  0
   -8.0948  -28.3548  -13.6288 O   0  0  0  0  0  0  0  0  0  0  0  0
   -7.1903  -31.3013  -15.4456 O   0  0  0  0  0  0  0  0  0  0  0  0
   -6.0852  -27.9902  -15.5510 O   0  0  0  0  0  0  0  0  0  0  0  0
  1  2  1  0
  1  7  1  1
  1 11  1  0
  2  3  1  0
  2  8  1  1
  3  4  1  0
  3  9  1  6
  5  4  1  0
  4 10  1  1
  5  6  1  0
  5 11  1  6
  6 12  1  6
 13  7  1  6
 13 14  1  0
 22 13  1  0
 15 14  1  0
 14 19  1  6
 16 15  1  0
 15 20  1  1
 17 16  1  0
 16 21  1  6
 18 17  1  0
 17 22  1  1
 18 23  1  6
M  END
$$$$
