
     RDKit          3D

 23 24  0  0  0  0  0  0  0  0999 V2000
   -6.3104  -31.4390  -13.3298 C   0  0  1  0  0  0  0  0  0  0  0  0
   -7.7310  -30.9019  -13.4852 C   0  0  1  0  0  0  0  0  0  0  0  0
   -7.8273  -29.8704  -14.5742 C   0  0  2  0  0  0  0  0  0  0  0  0
   -7.1757  -30.3046  -15.8558 C   0  0  1  0  0  0  0  0  0  0  0  0
   -5.9550  -31.1110  -15.5156 C   0  0  1  0  0  0  0  0  0  0  0  0
   -4.8161  -30.8705  -16.4804 C   0  0  0  0  0  0  0  0  0  0  0  0
   -6.2388  -32.7694  -13.6595 O   0  0  0  0  0  0  0  0  0  0  0  0
   -8.6506  -31.9375  -13.6579 O   0  0  0  0  0  0  0  0  0  0  0  0
   -7.1646  -28.7117  -14.1476 O   0  0  0  0  0  0  0  0  0  0  0  0
   -8.0556  -31.0629  -16.6436 O   0  0  0  0  0  0  0  0  0  0  0  0
   -5.5202  -30.7411  -14.2441 O   0  0  0  0  0  0  0  0  0  0  0  0
   -4.5364  -29.5347  -16.6554 O   0  0  0  0  0  0  0  0  0  0  0  0
   -6.7442  -33.0312  -14.9555 C   0  0  2  0  0  0  0  0  0  0  0  0
   -7.8884  -33.9744  -14.7751 C   0  0  1  0  0  0  0  0  0  0  0  0
   -7.6452  -35.2540  -15.5817 C   0  0  2  0  0  0  0  0  0  0  0  0
   -7.3038  -34.7321  -16.9851 C   0  0  1  0  0  0  0  0  0  0  0  0
   -5.9304  -34.1259  -16.8438 C   0  0  1  0  0  0  0  0  0  0  0  0
   -5.5742  -33.2389  -18.0225 C   0  0  0  0  0  0  0  0  0  0  0  0
   -8.1431  -34.2934  -13.4454 O   0  0  0  0  0  0  0  0  0  0  0  0
   -8.7393  -36.0739  -15.5812 O   0  0  0  0  0  0  0  0  0  0  0  0
   -7.3239  -35.7861  -17.8914 O   0  0  0  0  0  0  0  0  0  0  0  0
   -5.6955  -33.5004  -15.6722 O   0  0  0  0  0  0  0  0  0  0  0  0
   -4.2110  -33.0282  -18.1232 O   0  0  0  0  0  0  0  0  0  0  0  0
  1  2  1  0
  1  7  1  6
  1 11  1  0
  2  3  1  0
  2  8  1  6
  3  4  1  0
  3  9  1  1
  5  4  1  0
  4 10  1  1
  5  6  1  0
  5 11  1  1
  6 12  1  6
 13  7  1  1
 13 14  1  0
 22 13  1  0
 15 14  1  0
 14 19  1  1
 16 15  1  0
 15 20  1  6
 17 16  1  0
 16 21  1  6
 18 17  1  0
 17 22  1  1
 18 23  1  6
M  END
$$$$
