
     RDKit          3D

 23 24  0  0  0  0  0  0  0  0999 V2000
   -6.4517  -33.2495  -15.6933 C   0  0  1  0  0  0  0  0  0  0  0  0
   -7.5593  -34.1021  -16.1996 C   0  0  1  0  0  0  0  0  0  0  0  0
   -7.2970  -35.5861  -15.9096 C   0  0  2  0  0  0  0  0  0  0  0  0
   -5.9911  -35.8583  -16.6376 C   0  0  1  0  0  0  0  0  0  0  0  0
   -4.9492  -35.0259  -15.9712 C   0  0  1  0  0  0  0  0  0  0  0  0
   -3.6500  -35.2106  -16.7685 C   0  0  0  0  0  0  0  0  0  0  0  0
   -6.7176  -32.9652  -14.3611 O   0  0  0  0  0  0  0  0  0  0  0  0
   -8.7948  -33.7937  -15.6727 O   0  0  0  0  0  0  0  0  0  0  0  0
   -8.3120  -36.3569  -16.4537 O   0  0  0  0  0  0  0  0  0  0  0  0
   -5.6375  -37.2088  -16.4529 O   0  0  0  0  0  0  0  0  0  0  0  0
   -5.2038  -33.7413  -15.7611 O   0  0  0  0  0  0  0  0  0  0  0  0
   -3.8288  -34.5174  -17.9602 O   0  0  0  0  0  0  0  0  0  0  0  0
   -6.9569  -31.6607  -14.0645 C   0  0  2  0  0  0  0  0  0  0  0  0
   -7.3031  -31.3488  -12.6501 C   0  0  1  0  0  0  0  0  0  0  0  0
   -7.2287  -29.8326  -12.4820 C   0  0  2  0  0  0  0  0  0  0  0  0
   -7.6531  -29.1250  -13.7465 C   0  0  1  0  0  0  0  0  0  0  0  0
   -8.5501  -30.0446  -14.5153 C   0  0  1  0  0  0  0  0  0  0  0  0
   -9.0722  -29.2563  -15.7211 C   0  0  0  0  0  0  0  0  0  0  0  0
   -8.5975  -31.7284  -12.3064 O   0  0  0  0  0  0  0  0  0  0  0  0
   -5.8820  -29.4694  -12.2601 O   0  0  0  0  0  0  0  0  0  0  0  0
   -8.3559  -27.9525  -13.4823 O   0  0  0  0  0  0  0  0  0  0  0  0
   -7.9763  -31.2185  -14.9072 O   0  0  0  0  0  0  0  0  0  0  0  0
   -7.9944  -28.8716  -16.5482 O   0  0  0  0  0  0  0  0  0  0  0  0
  1  2  1  0
  1  7  1  1
  1 11  1  0
  2  3  1  0
  2  8  1  1
  3  4  1  0
  3  9  1  6
  5  4  1  0
  4 10  1  1
  5  6  1  6
 11  5  1  0
  6 12  1  0
 13  7  1  1
 13 14  1  0
 22 13  1  0
 15 14  1  0
 14 19  1  6
 16 15  1  0
 15 20  1  6
 17 16  1  0
 16 21  1  1
 17 18  1  6
 17 22  1  0
 23 18  1  0
M  END
$$$$
