
     RDKit          3D

 23 24  0  0  0  0  0  0  0  0999 V2000
   -6.3029  -33.7865  -16.1310 C   0  0  1  0  0  0  0  0  0  0  0  0
   -7.4471  -34.6689  -16.6236 C   0  0  1  0  0  0  0  0  0  0  0  0
   -6.9853  -36.0628  -16.9450 C   0  0  2  0  0  0  0  0  0  0  0  0
   -6.1461  -36.6705  -15.8579 C   0  0  1  0  0  0  0  0  0  0  0  0
   -5.3051  -35.5856  -15.2481 C   0  0  1  0  0  0  0  0  0  0  0  0
   -3.9272  -36.0718  -14.8597 C   0  0  0  0  0  0  0  0  0  0  0  0
   -6.4835  -33.4163  -14.8217 O   0  0  0  0  0  0  0  0  0  0  0  0
   -8.5172  -34.6622  -15.7277 O   0  0  0  0  0  0  0  0  0  0  0  0
   -6.1911  -36.0120  -18.0985 O   0  0  0  0  0  0  0  0  0  0  0  0
   -6.9449  -37.2766  -14.8759 O   0  0  0  0  0  0  0  0  0  0  0  0
   -5.1475  -34.5672  -16.1865 O   0  0  0  0  0  0  0  0  0  0  0  0
   -3.1223  -36.3225  -15.9470 O   0  0  0  0  0  0  0  0  0  0  0  0
   -6.4539  -32.0115  -14.6502 C   0  0  2  0  0  0  0  0  0  0  0  0
   -6.5564  -31.7678  -13.1801 C   0  0  1  0  0  0  0  0  0  0  0  0
   -7.7709  -30.8839  -12.8785 C   0  0  2  0  0  0  0  0  0  0  0  0
   -7.5946  -29.6961  -13.8358 C   0  0  1  0  0  0  0  0  0  0  0  0
   -7.8873  -30.2605  -15.2031 C   0  0  1  0  0  0  0  0  0  0  0  0
   -7.4133  -29.3409  -16.3134 C   0  0  0  0  0  0  0  0  0  0  0  0
   -6.6199  -32.9343  -12.4251 O   0  0  0  0  0  0  0  0  0  0  0  0
   -7.8084  -30.4971  -11.5677 O   0  0  0  0  0  0  0  0  0  0  0  0
   -8.4768  -28.6805  -13.4851 O   0  0  0  0  0  0  0  0  0  0  0  0
   -7.4688  -31.5268  -15.4044 O   0  0  0  0  0  0  0  0  0  0  0  0
   -8.1666  -29.4823  -17.4647 O   0  0  0  0  0  0  0  0  0  0  0  0
  1  2  1  0
  1  7  1  1
  1 11  1  0
  2  3  1  0
  2  8  1  1
  3  4  1  0
  3  9  1  6
  5  4  1  0
  4 10  1  1
  5  6  1  0
  5 11  1  6
  6 12  1  6
 13  7  1  1
 13 14  1  0
 22 13  1  0
 15 14  1  0
 14 19  1  1
 16 15  1  0
 15 20  1  1
 17 16  1  0
 16 21  1  1
 18 17  1  0
 17 22  1  6
 18 23  1  6
M  END
$$$$
