
     RDKit          3D

 23 24  0  0  0  0  0  0  0  0999 V2000
   -6.6044  -33.0101  -15.9056 C   0  0  1  0  0  0  0  0  0  0  0  0
   -7.7768  -33.9145  -16.0392 C   0  0  1  0  0  0  0  0  0  0  0  0
   -7.3813  -35.3779  -15.8000 C   0  0  2  0  0  0  0  0  0  0  0  0
   -6.3375  -35.6372  -16.8737 C   0  0  1  0  0  0  0  0  0  0  0  0
   -5.1800  -34.7489  -16.5673 C   0  0  1  0  0  0  0  0  0  0  0  0
   -4.1664  -34.9235  -17.7074 C   0  0  0  0  0  0  0  0  0  0  0  0
   -6.4779  -32.6845  -14.5624 O   0  0  0  0  0  0  0  0  0  0  0  0
   -8.8139  -33.6246  -15.1793 O   0  0  0  0  0  0  0  0  0  0  0  0
   -8.4795  -36.1992  -15.9993 O   0  0  0  0  0  0  0  0  0  0  0  0
   -5.8912  -36.9684  -16.7657 O   0  0  0  0  0  0  0  0  0  0  0  0
   -5.4130  -33.4658  -16.3258 O   0  0  0  0  0  0  0  0  0  0  0  0
   -4.4796  -33.9525  -18.6518 O   0  0  0  0  0  0  0  0  0  0  0  0
   -6.8630  -31.4288  -14.2129 C   0  0  2  0  0  0  0  0  0  0  0  0
   -7.2677  -31.2236  -12.7945 C   0  0  1  0  0  0  0  0  0  0  0  0
   -7.3615  -29.7180  -12.5563 C   0  0  2  0  0  0  0  0  0  0  0  0
   -7.8361  -29.0007  -13.7973 C   0  0  1  0  0  0  0  0  0  0  0  0
   -8.6133  -29.9738  -14.6283 C   0  0  1  0  0  0  0  0  0  0  0  0
   -9.1949  -29.1898  -15.8093 C   0  0  0  0  0  0  0  0  0  0  0  0
   -8.5196  -31.7561  -12.4995 O   0  0  0  0  0  0  0  0  0  0  0  0
   -6.0666  -29.2230  -12.2859 O   0  0  0  0  0  0  0  0  0  0  0  0
   -8.6669  -27.9245  -13.4973 O   0  0  0  0  0  0  0  0  0  0  0  0
   -7.9082  -31.0592  -15.0589 O   0  0  0  0  0  0  0  0  0  0  0  0
   -8.1498  -28.6823  -16.6118 O   0  0  0  0  0  0  0  0  0  0  0  0
  1  2  1  0
  1  7  1  1
  1 11  1  0
  2  3  1  0
  2  8  1  1
  3  4  1  0
  3  9  1  6
  5  4  1  0
  4 10  1  1
  5  6  1  6
 11  5  1  0
  6 12  1  0
 13  7  1  1
 13 14  1  0
 22 13  1  0
 15 14  1  0
 14 19  1  6
 16 15  1  0
 15 20  1  6
 17 16  1  0
 16 21  1  1
 17 18  1  6
 17 22  1  0
 23 18  1  0
M  END
$$$$
