
     RDKit          3D

 23 24  0  0  0  0  0  0  0  0999 V2000
   -6.0907  -33.1138  -16.4797 C   0  0  1  0  0  0  0  0  0  0  0  0
   -5.9856  -31.9164  -15.6049 C   0  0  1  0  0  0  0  0  0  0  0  0
   -6.8519  -30.7643  -16.1316 C   0  0  2  0  0  0  0  0  0  0  0  0
   -6.2852  -30.5074  -17.5181 C   0  0  1  0  0  0  0  0  0  0  0  0
   -6.5454  -31.7369  -18.3202 C   0  0  1  0  0  0  0  0  0  0  0  0
   -5.8800  -31.5289  -19.6883 C   0  0  0  0  0  0  0  0  0  0  0  0
   -7.1944  -33.8432  -16.0601 O   0  0  0  0  0  0  0  0  0  0  0  0
   -6.3532  -32.1401  -14.2957 O   0  0  0  0  0  0  0  0  0  0  0  0
   -6.6781  -29.6443  -15.3342 O   0  0  0  0  0  0  0  0  0  0  0  0
   -7.0000  -29.4515  -18.1158 O   0  0  0  0  0  0  0  0  0  0  0  0
   -6.2170  -32.9125  -17.8015 O   0  0  0  0  0  0  0  0  0  0  0  0
   -5.2594  -32.7332  -20.0005 O   0  0  0  0  0  0  0  0  0  0  0  0
   -6.9298  -35.0051  -15.4065 C   0  0  2  0  0  0  0  0  0  0  0  0
   -7.7121  -35.2685  -14.1670 C   0  0  1  0  0  0  0  0  0  0  0  0
   -7.4809  -36.7274  -13.7787 C   0  0  2  0  0  0  0  0  0  0  0  0
   -6.0819  -37.1689  -14.1360 C   0  0  1  0  0  0  0  0  0  0  0  0
   -5.2090  -35.9535  -14.1850 C   0  0  1  0  0  0  0  0  0  0  0  0
   -3.7748  -36.4413  -14.4153 C   0  0  0  0  0  0  0  0  0  0  0  0
   -7.3016  -34.4946  -13.0852 O   0  0  0  0  0  0  0  0  0  0  0  0
   -8.3555  -37.5389  -14.5346 O   0  0  0  0  0  0  0  0  0  0  0  0
   -5.5515  -38.0475  -13.1952 O   0  0  0  0  0  0  0  0  0  0  0  0
   -5.5662  -35.0219  -15.1151 O   0  0  0  0  0  0  0  0  0  0  0  0
   -3.6472  -36.9622  -15.7214 O   0  0  0  0  0  0  0  0  0  0  0  0
  1  2  1  0
  1  7  1  1
  1 11  1  0
  2  3  1  0
  2  8  1  1
  3  4  1  0
  3  9  1  1
  5  4  1  0
  4 10  1  6
  5  6  1  6
 11  5  1  0
  6 12  1  0
 13  7  1  1
 13 14  1  0
 22 13  1  0
 15 14  1  0
 14 19  1  1
 16 15  1  0
 15 20  1  6
 17 16  1  0
 16 21  1  1
 17 18  1  6
 17 22  1  0
 23 18  1  0
M  END
$$$$
