
     RDKit          3D

 23 24  0  0  0  0  0  0  0  0999 V2000
   -5.9151  -33.9088  -15.7593 C   0  0  1  0  0  0  0  0  0  0  0  0
   -6.7809  -34.2983  -16.9034 C   0  0  1  0  0  0  0  0  0  0  0  0
   -7.2015  -35.7711  -16.8072 C   0  0  2  0  0  0  0  0  0  0  0  0
   -5.8758  -36.5139  -16.8183 C   0  0  1  0  0  0  0  0  0  0  0  0
   -5.1536  -36.1171  -15.5759 C   0  0  1  0  0  0  0  0  0  0  0  0
   -3.7682  -36.7769  -15.6322 C   0  0  0  0  0  0  0  0  0  0  0  0
   -6.7470  -33.5316  -14.7143 O   0  0  0  0  0  0  0  0  0  0  0  0
   -7.9324  -33.5501  -17.0199 O   0  0  0  0  0  0  0  0  0  0  0  0
   -7.9486  -36.1192  -17.9213 O   0  0  0  0  0  0  0  0  0  0  0  0
   -6.1262  -37.8975  -16.7402 O   0  0  0  0  0  0  0  0  0  0  0  0
   -5.0582  -34.8269  -15.2836 O   0  0  0  0  0  0  0  0  0  0  0  0
   -3.1646  -36.3044  -16.7920 O   0  0  0  0  0  0  0  0  0  0  0  0
   -6.7732  -32.2050  -14.4202 C   0  0  2  0  0  0  0  0  0  0  0  0
   -7.6636  -31.7850  -13.3028 C   0  0  1  0  0  0  0  0  0  0  0  0
   -7.3120  -30.3405  -12.9528 C   0  0  2  0  0  0  0  0  0  0  0  0
   -6.8964  -29.5698  -14.1828 C   0  0  1  0  0  0  0  0  0  0  0  0
   -7.5119  -30.2318  -15.3763 C   0  0  1  0  0  0  0  0  0  0  0  0
   -7.1872  -29.3563  -16.5912 C   0  0  0  0  0  0  0  0  0  0  0  0
   -9.0133  -31.7993  -13.6427 O   0  0  0  0  0  0  0  0  0  0  0  0
   -6.1914  -30.3450  -12.0932 O   0  0  0  0  0  0  0  0  0  0  0  0
   -7.3311  -28.2476  -14.1467 O   0  0  0  0  0  0  0  0  0  0  0  0
   -7.1258  -31.5234  -15.5847 O   0  0  0  0  0  0  0  0  0  0  0  0
   -5.8562  -28.8922  -16.5083 O   0  0  0  0  0  0  0  0  0  0  0  0
  1  2  1  0
  1  7  1  1
  1 11  1  0
  2  3  1  0
  2  8  1  1
  3  4  1  0
  3  9  1  6
  5  4  1  0
  4 10  1  1
  5  6  1  6
 11  5  1  0
  6 12  1  0
 13  7  1  6
 13 14  1  0
 22 13  1  0
 15 14  1  0
 14 19  1  6
 16 15  1  0
 15 20  1  1
 17 16  1  0
 16 21  1  1
 17 18  1  6
 17 22  1  0
 23 18  1  0
M  END
$$$$
