
     RDKit          3D

 23 24  0  0  0  0  0  0  0  0999 V2000
   -6.2562  -33.6241  -14.6995 C   0  0  1  0  0  0  0  0  0  0  0  0
   -7.5101  -33.3419  -13.8758 C   0  0  1  0  0  0  0  0  0  0  0  0
   -7.2116  -33.2621  -12.4047 C   0  0  2  0  0  0  0  0  0  0  0  0
   -6.0397  -32.3777  -12.0888 C   0  0  1  0  0  0  0  0  0  0  0  0
   -5.0232  -32.5312  -13.1840 C   0  0  1  0  0  0  0  0  0  0  0  0
   -3.6036  -32.4780  -12.6665 C   0  0  0  0  0  0  0  0  0  0  0  0
   -5.9428  -32.5649  -15.5141 O   0  0  0  0  0  0  0  0  0  0  0  0
   -8.1793  -32.2083  -14.3394 O   0  0  0  0  0  0  0  0  0  0  0  0
   -6.8926  -34.5474  -11.9465 O   0  0  0  0  0  0  0  0  0  0  0  0
   -6.4310  -31.0348  -11.9731 O   0  0  0  0  0  0  0  0  0  0  0  0
   -5.2087  -33.7727  -13.7895 O   0  0  0  0  0  0  0  0  0  0  0  0
   -2.8763  -33.6021  -12.9837 O   0  0  0  0  0  0  0  0  0  0  0  0
   -6.1426  -32.8611  -16.8838 C   0  0  2  0  0  0  0  0  0  0  0  0
   -6.3426  -31.5496  -17.5701 C   0  0  1  0  0  0  0  0  0  0  0  0
   -7.6929  -31.5371  -18.2938 C   0  0  2  0  0  0  0  0  0  0  0  0
   -7.6673  -32.8315  -19.1198 C   0  0  1  0  0  0  0  0  0  0  0  0
   -7.8107  -33.9362  -18.1036 C   0  0  1  0  0  0  0  0  0  0  0  0
   -7.4427  -35.2917  -18.6784 C   0  0  0  0  0  0  0  0  0  0  0  0
   -6.2520  -30.4548  -16.7169 O   0  0  0  0  0  0  0  0  0  0  0  0
   -7.8449  -30.4236  -19.0726 O   0  0  0  0  0  0  0  0  0  0  0  0
   -8.7126  -32.8198  -20.0363 O   0  0  0  0  0  0  0  0  0  0  0  0
   -7.1894  -33.7191  -16.9263 O   0  0  0  0  0  0  0  0  0  0  0  0
   -7.0798  -36.1940  -17.6950 O   0  0  0  0  0  0  0  0  0  0  0  0
  1  2  1  0
  1  7  1  6
  1 11  1  0
  2  3  1  0
  2  8  1  6
  3  4  1  0
  3  9  1  6
  5  4  1  0
  4 10  1  6
  5  6  1  0
  5 11  1  1
  6 12  1  6
 13  7  1  1
 13 14  1  0
 22 13  1  0
 15 14  1  0
 14 19  1  1
 16 15  1  0
 15 20  1  6
 17 16  1  0
 16 21  1  6
 18 17  1  0
 17 22  1  1
 18 23  1  6
M  END
$$$$
