
     RDKit          3D

 23 24  0  0  0  0  0  0  0  0999 V2000
   -6.1241  -33.7635  -15.8636 C   0  0  1  0  0  0  0  0  0  0  0  0
   -6.9228  -33.6964  -17.1628 C   0  0  1  0  0  0  0  0  0  0  0  0
   -7.0311  -35.0402  -17.8275 C   0  0  2  0  0  0  0  0  0  0  0  0
   -7.4537  -36.1308  -16.8855 C   0  0  1  0  0  0  0  0  0  0  0  0
   -6.8343  -35.8623  -15.5437 C   0  0  1  0  0  0  0  0  0  0  0  0
   -6.4163  -37.1312  -14.8358 C   0  0  0  0  0  0  0  0  0  0  0  0
   -6.9114  -33.4789  -14.7760 O   0  0  0  0  0  0  0  0  0  0  0  0
   -8.1714  -33.1057  -16.9628 O   0  0  0  0  0  0  0  0  0  0  0  0
   -5.7691  -35.3920  -18.3250 O   0  0  0  0  0  0  0  0  0  0  0  0
   -8.8512  -36.1935  -16.7723 O   0  0  0  0  0  0  0  0  0  0  0  0
   -5.6932  -35.0842  -15.7304 O   0  0  0  0  0  0  0  0  0  0  0  0
   -5.2824  -36.9696  -14.0735 O   0  0  0  0  0  0  0  0  0  0  0  0
   -6.4959  -32.3050  -14.1027 C   0  0  2  0  0  0  0  0  0  0  0  0
   -7.6142  -31.9314  -13.1856 C   0  0  1  0  0  0  0  0  0  0  0  0
   -8.0956  -30.5107  -13.4976 C   0  0  2  0  0  0  0  0  0  0  0  0
   -6.8003  -29.6857  -13.4930 C   0  0  1  0  0  0  0  0  0  0  0  0
   -6.0750  -30.1062  -14.7463 C   0  0  1  0  0  0  0  0  0  0  0  0
   -4.6189  -29.6787  -14.7334 C   0  0  0  0  0  0  0  0  0  0  0  0
   -8.6873  -32.8153  -13.2266 O   0  0  0  0  0  0  0  0  0  0  0  0
   -9.0021  -30.0647  -12.5764 O   0  0  0  0  0  0  0  0  0  0  0  0
   -7.1114  -28.3307  -13.4938 O   0  0  0  0  0  0  0  0  0  0  0  0
   -6.1996  -31.4087  -15.0735 O   0  0  0  0  0  0  0  0  0  0  0  0
   -3.9988  -29.9035  -15.9492 O   0  0  0  0  0  0  0  0  0  0  0  0
  1  2  1  0
  1  7  1  1
  1 11  1  0
  2  3  1  0
  2  8  1  1
  3  4  1  0
  3  9  1  1
  5  4  1  0
  4 10  1  1
  5  6  1  0
  5 11  1  6
  6 12  1  6
 13  7  1  6
 13 14  1  0
 22 13  1  0
 15 14  1  0
 14 19  1  6
 16 15  1  0
 15 20  1  1
 17 16  1  0
 16 21  1  6
 18 17  1  0
 17 22  1  1
 18 23  1  6
M  END
$$$$
