
     RDKit          3D

 23 24  0  0  0  0  0  0  0  0999 V2000
   -6.0590  -34.0437  -15.0421 C   0  0  1  0  0  0  0  0  0  0  0  0
   -5.1069  -33.6364  -16.1636 C   0  0  1  0  0  0  0  0  0  0  0  0
   -4.8429  -34.7679  -17.1172 C   0  0  2  0  0  0  0  0  0  0  0  0
   -6.0964  -35.4562  -17.5757 C   0  0  1  0  0  0  0  0  0  0  0  0
   -7.0674  -35.4818  -16.4301 C   0  0  1  0  0  0  0  0  0  0  0  0
   -7.8776  -36.7577  -16.3875 C   0  0  0  0  0  0  0  0  0  0  0  0
   -7.2445  -33.3559  -15.1165 O   0  0  0  0  0  0  0  0  0  0  0  0
   -5.5544  -32.4886  -16.8195 O   0  0  0  0  0  0  0  0  0  0  0  0
   -4.0625  -35.7288  -16.4601 O   0  0  0  0  0  0  0  0  0  0  0  0
   -6.6635  -34.8002  -18.6794 O   0  0  0  0  0  0  0  0  0  0  0  0
   -6.3492  -35.3945  -15.2388 O   0  0  0  0  0  0  0  0  0  0  0  0
   -7.4857  -37.6066  -15.3782 O   0  0  0  0  0  0  0  0  0  0  0  0
   -7.3774  -32.3983  -14.0825 C   0  0  2  0  0  0  0  0  0  0  0  0
   -8.5142  -31.5131  -14.4767 C   0  0  1  0  0  0  0  0  0  0  0  0
   -8.0440  -30.0567  -14.5489 C   0  0  2  0  0  0  0  0  0  0  0  0
   -7.3440  -29.8402  -13.1992 C   0  0  1  0  0  0  0  0  0  0  0  0
   -6.0685  -30.6384  -13.2979 C   0  0  1  0  0  0  0  0  0  0  0  0
   -5.4200  -30.8476  -11.9419 C   0  0  0  0  0  0  0  0  0  0  0  0
   -9.1139  -31.8777  -15.6775 O   0  0  0  0  0  0  0  0  0  0  0  0
   -9.0858  -29.1925  -14.7414 O   0  0  0  0  0  0  0  0  0  0  0  0
   -7.1035  -28.4838  -13.0118 O   0  0  0  0  0  0  0  0  0  0  0  0
   -6.1675  -31.7994  -13.9773 O   0  0  0  0  0  0  0  0  0  0  0  0
   -6.2367  -30.4359  -10.9043 O   0  0  0  0  0  0  0  0  0  0  0  0
  1  2  1  0
  1  7  1  6
  1 11  1  0
  2  3  1  0
  2  8  1  6
  3  4  1  0
  3  9  1  1
  5  4  1  0
  4 10  1  6
  5  6  1  0
  5 11  1  1
  6 12  1  6
 13  7  1  6
 13 14  1  0
 22 13  1  0
 15 14  1  0
 14 19  1  6
 16 15  1  0
 15 20  1  1
 17 16  1  0
 16 21  1  6
 18 17  1  0
 17 22  1  1
 18 23  1  6
M  END
$$$$
