
     RDKit          3D

 23 24  0  0  0  0  0  0  0  0999 V2000
   -6.3388  -32.2541  -14.7058 C   0  0  1  0  0  0  0  0  0  0  0  0
   -6.7278  -31.9560  -13.3023 C   0  0  1  0  0  0  0  0  0  0  0  0
   -7.6087  -30.7018  -13.2230 C   0  0  2  0  0  0  0  0  0  0  0  0
   -6.7230  -29.6157  -13.8108 C   0  0  1  0  0  0  0  0  0  0  0  0
   -6.4943  -29.9777  -15.2388 C   0  0  1  0  0  0  0  0  0  0  0  0
   -5.5120  -28.9456  -15.8113 C   0  0  0  0  0  0  0  0  0  0  0  0
   -7.3536  -33.0152  -15.2688 O   0  0  0  0  0  0  0  0  0  0  0  0
   -7.4109  -32.9767  -12.6772 O   0  0  0  0  0  0  0  0  0  0  0  0
   -7.8958  -30.4132  -11.8984 O   0  0  0  0  0  0  0  0  0  0  0  0
   -7.4227  -28.3938  -13.7896 O   0  0  0  0  0  0  0  0  0  0  0  0
   -6.1103  -31.2146  -15.5248 O   0  0  0  0  0  0  0  0  0  0  0  0
   -4.6769  -29.6472  -16.6734 O   0  0  0  0  0  0  0  0  0  0  0  0
   -6.9896  -34.2312  -15.7545 C   0  0  2  0  0  0  0  0  0  0  0  0
   -8.0898  -35.1915  -16.0468 C   0  0  1  0  0  0  0  0  0  0  0  0
   -7.4922  -36.3445  -16.8506 C   0  0  2  0  0  0  0  0  0  0  0  0
   -6.0705  -36.6230  -16.4255 C   0  0  1  0  0  0  0  0  0  0  0  0
   -5.9017  -36.1364  -15.0197 C   0  0  1  0  0  0  0  0  0  0  0  0
   -4.4975  -36.5508  -14.5679 C   0  0  0  0  0  0  0  0  0  0  0  0
   -8.6498  -35.7483  -14.9005 O   0  0  0  0  0  0  0  0  0  0  0  0
   -7.4298  -35.9620  -18.2089 O   0  0  0  0  0  0  0  0  0  0  0  0
   -5.7698  -37.9821  -16.4542 O   0  0  0  0  0  0  0  0  0  0  0  0
   -6.0995  -34.7984  -14.8430 O   0  0  0  0  0  0  0  0  0  0  0  0
   -3.5260  -35.9182  -15.3739 O   0  0  0  0  0  0  0  0  0  0  0  0
  1  2  1  0
  1  7  1  6
  1 11  1  0
  2  3  1  0
  2  8  1  6
  3  4  1  0
  3  9  1  1
  5  4  1  0
  4 10  1  6
  5  6  1  1
 11  5  1  0
  6 12  1  0
 13  7  1  1
 13 14  1  0
 22 13  1  0
 15 14  1  0
 14 19  1  1
 16 15  1  0
 15 20  1  6
 17 16  1  0
 16 21  1  1
 17 18  1  6
 17 22  1  0
 23 18  1  0
M  END
$$$$
