
     RDKit          3D

 33 35  0  0  0  0  0  0  0  0999 V2000
  109.8198  -15.2068  -10.6946 C   0  0  2  0  0  0  0  0  0  0  0  0
  108.3414  -15.3178  -11.0297 C   0  0  1  0  0  0  0  0  0  0  0  0
  108.0696  -15.6581  -12.4546 C   0  0  2  0  0  0  0  0  0  0  0  0
  109.1666  -16.4183  -13.1393 C   0  0  1  0  0  0  0  0  0  0  0  0
  110.5427  -16.0642  -12.6812 C   0  0  1  0  0  0  0  0  0  0  0  0
  111.0327  -14.7655  -13.2538 C   0  0  0  0  0  0  0  0  0  0  0  0
  109.7063  -15.2231   -6.4808 C   0  0  1  0  0  0  0  0  0  0  0  0
  111.1256  -14.9349   -6.8035 C   0  0  1  0  0  0  0  0  0  0  0  0
  111.6025  -15.8365   -7.8719 C   0  0  2  0  0  0  0  0  0  0  0  0
  110.4978  -16.3538   -8.7613 C   0  0  1  0  0  0  0  0  0  0  0  0
  109.6559  -17.2795   -7.9317 C   0  0  2  0  0  0  0  0  0  0  0  0
  109.3610  -16.6681   -6.5910 C   0  0  0  0  0  0  0  0  0  0  0  0
  112.3932  -13.0599   -6.3292 C   0  0  1  0  0  0  0  0  0  0  0  0
  112.7416  -11.6266   -6.7427 C   0  0  1  0  0  0  0  0  0  0  0  0
  114.0946  -11.2750   -6.1399 C   0  0  2  0  0  0  0  0  0  0  0  0
  114.3583  -12.1453   -4.9334 C   0  0  1  0  0  0  0  0  0  0  0  0
  114.3589  -13.5727   -5.3105 C   0  0  1  0  0  0  0  0  0  0  0  0
  114.1241  -14.4973   -4.1214 C   0  0  0  0  0  0  0  0  0  0  0  0
  112.5016  -14.8579  -13.2954 N   0  0  0  0  0  4  0  0  0  0  0  0
  110.2944  -18.5541   -7.6764 N   0  0  0  0  0  4  0  0  0  0  0  0
  109.4481  -14.8049   -5.1145 N   0  0  0  0  0  4  0  0  0  0  0  0
  114.0548   -9.8733   -5.7855 N   0  0  0  0  0  4  0  0  0  0  0  0
  110.5787  -16.1586  -11.3166 O   0  0  0  0  0  0  0  0  0  0  0  0
  107.7452  -16.3108  -10.2175 O   0  0  0  0  0  0  0  0  0  0  0  0
  107.7972  -14.5274  -13.2261 O   0  0  0  0  0  0  0  0  0  0  0  0
  108.9923  -17.7953  -12.9523 O   0  0  0  0  0  0  0  0  0  0  0  0
  109.9309  -15.3261   -9.3500 O   0  0  0  0  0  0  0  0  0  0  0  0
  112.3360  -16.9155   -7.3307 O   0  0  0  0  0  0  0  0  0  0  0  0
  111.3819  -13.6023   -7.0824 O   0  0  0  0  0  0  0  0  0  0  0  0
  113.5204  -13.8502   -6.3557 O   0  0  0  0  0  0  0  0  0  0  0  0
  112.8747  -11.6169   -8.1173 O   0  0  0  0  0  0  0  0  0  0  0  0
  115.5717  -11.7418   -4.3603 O   0  0  0  0  0  0  0  0  0  0  0  0
  115.2202  -14.5668   -3.3005 O   0  0  0  0  0  0  0  0  0  0  0  0
  1  2  1  0
  1 23  1  0
  1 27  1  1
  2  3  1  0
  2 24  1  1
  3  4  1  0
  3 25  1  6
  5  4  1  0
  4 26  1  1
  5  6  1  1
 23  5  1  0
  6 19  1  0
  8  7  1  0
  7 12  1  0
  7 21  1  1
  8  9  1  0
  8 29  1  6
  9 10  1  0
  9 28  1  1
 10 11  1  0
 10 27  1  1
 12 11  1  0
 11 20  1  1
 13 14  1  0
 13 29  1  6
 13 30  1  0
 14 15  1  0
 14 31  1  6
 15 16  1  0
 15 22  1  1
 16 17  1  0
 16 32  1  6
 17 18  1  1
 17 30  1  0
 18 33  1  0
M  CHG  4  19   1  20   1  21   1  22   1
M  END
$$$$
