
     RDKit          3D

 33 35  0  0  0  0  0  0  0  0999 V2000
  105.1666  -17.0094   -2.2951 C   0  0  2  0  0  0  0  0  0  0  0  0
  105.2644  -18.1527   -1.2982 C   0  0  1  0  0  0  0  0  0  0  0  0
  103.9713  -18.4919   -0.6403 C   0  0  2  0  0  0  0  0  0  0  0  0
  102.7501  -18.1513   -1.4421 C   0  0  1  0  0  0  0  0  0  0  0  0
  102.8868  -16.9276   -2.2865 C   0  0  1  0  0  0  0  0  0  0  0  0
  102.7694  -15.6566   -1.4959 C   0  0  0  0  0  0  0  0  0  0  0  0
  108.4911  -16.5578   -4.8312 C   0  0  1  0  0  0  0  0  0  0  0  0
  107.9354  -17.8674   -5.2528 C   0  0  1  0  0  0  0  0  0  0  0  0
  107.5849  -18.6809   -4.0709 C   0  0  2  0  0  0  0  0  0  0  0  0
  107.2866  -17.8586   -2.8405 C   0  0  1  0  0  0  0  0  0  0  0  0
  108.5765  -17.2253   -2.4056 C   0  0  2  0  0  0  0  0  0  0  0  0
  109.3015  -16.6382   -3.5837 C   0  0  0  0  0  0  0  0  0  0  0  0
  106.8924  -18.7565   -7.1153 C   0  0  1  0  0  0  0  0  0  0  0  0
  106.0549  -18.3927   -8.3454 C   0  0  1  0  0  0  0  0  0  0  0  0
  105.8009  -19.6664   -9.1395 C   0  0  2  0  0  0  0  0  0  0  0  0
  106.8688  -20.6873   -8.8234 C   0  0  1  0  0  0  0  0  0  0  0  0
  106.8687  -21.0130   -7.3835 C   0  0  1  0  0  0  0  0  0  0  0  0
  108.1847  -21.6247   -6.9167 C   0  0  0  0  0  0  0  0  0  0  0  0
  102.1128  -14.6778   -2.3784 N   0  0  0  0  0  4  0  0  0  0  0  0
  109.4877  -18.1617   -1.7808 N   0  0  0  0  0  4  0  0  0  0  0  0
  109.3491  -16.0565   -5.8899 N   0  0  0  0  0  4  0  0  0  0  0  0
  105.8073  -19.3068  -10.5404 N   0  0  0  0  0  4  0  0  0  0  0  0
  104.0217  -17.0510   -3.0408 O   0  0  0  0  0  0  0  0  0  0  0  0
  105.7438  -19.3115   -1.9527 O   0  0  0  0  0  0  0  0  0  0  0  0
  103.8372  -17.8831    0.6084 O   0  0  0  0  0  0  0  0  0  0  0  0
  102.4091  -19.2180   -2.2832 O   0  0  0  0  0  0  0  0  0  0  0  0
  106.2522  -17.0928   -3.1008 O   0  0  0  0  0  0  0  0  0  0  0  0
  108.5975  -19.6250   -3.7906 O   0  0  0  0  0  0  0  0  0  0  0  0
  106.8912  -17.7725   -6.1582 O   0  0  0  0  0  0  0  0  0  0  0  0
  106.4781  -19.9632   -6.5976 O   0  0  0  0  0  0  0  0  0  0  0  0
  104.8371  -17.9273   -7.8899 O   0  0  0  0  0  0  0  0  0  0  0  0
  106.6487  -21.8134   -9.6278 O   0  0  0  0  0  0  0  0  0  0  0  0
  109.2581  -21.1213   -7.6057 O   0  0  0  0  0  0  0  0  0  0  0  0
  1  2  1  0
  1 23  1  0
  1 27  1  6
  2  3  1  0
  2 24  1  6
  3  4  1  0
  3 25  1  1
  5  4  1  0
  4 26  1  6
  5  6  1  1
 23  5  1  0
  6 19  1  0
  8  7  1  0
  7 12  1  0
  7 21  1  6
  8  9  1  0
  8 29  1  6
  9 10  1  0
  9 28  1  1
 10 11  1  0
 10 27  1  6
 12 11  1  0
 11 20  1  6
 13 14  1  0
 13 29  1  1
 13 30  1  0
 14 15  1  0
 14 31  1  1
 15 16  1  0
 15 22  1  6
 16 17  1  0
 16 32  1  6
 17 18  1  1
 17 30  1  0
 18 33  1  0
M  CHG  4  19   1  20   1  21   1  22   1
M  END
$$$$
