
     RDKit          3D

 33 35  0  0  0  0  0  0  0  0999 V2000
  109.4206  -17.0914   -5.5370 C   0  0  2  0  0  0  0  0  0  0  0  0
  108.9323  -17.6051   -6.8816 C   0  0  1  0  0  0  0  0  0  0  0  0
  107.5543  -18.1707   -6.8473 C   0  0  2  0  0  0  0  0  0  0  0  0
  106.6741  -17.6156   -5.7670 C   0  0  1  0  0  0  0  0  0  0  0  0
  107.3919  -17.2593   -4.5073 C   0  0  1  0  0  0  0  0  0  0  0  0
  107.7301  -18.4582   -3.6690 C   0  0  0  0  0  0  0  0  0  0  0  0
  112.0723  -13.8974   -5.4150 C   0  0  1  0  0  0  0  0  0  0  0  0
  112.4813  -14.4918   -6.7116 C   0  0  1  0  0  0  0  0  0  0  0  0
  112.5724  -15.9615   -6.5967 C   0  0  2  0  0  0  0  0  0  0  0  0
  111.7016  -16.5356   -5.5053 C   0  0  1  0  0  0  0  0  0  0  0  0
  112.2799  -16.0887   -4.1939 C   0  0  2  0  0  0  0  0  0  0  0  0
  112.6202  -14.6257   -4.2366 C   0  0  0  0  0  0  0  0  0  0  0  0
  112.4019  -13.9575   -8.9601 C   0  0  1  0  0  0  0  0  0  0  0  0
  111.4951  -13.6950  -10.1665 C   0  0  1  0  0  0  0  0  0  0  0  0
  112.3018  -13.9547  -11.4312 C   0  0  2  0  0  0  0  0  0  0  0  0
  113.7762  -13.8079  -11.1361 C   0  0  1  0  0  0  0  0  0  0  0  0
  114.1973  -14.7659  -10.0948 C   0  0  1  0  0  0  0  0  0  0  0  0
  115.4962  -14.3585   -9.4086 C   0  0  0  0  0  0  0  0  0  0  0  0
  107.7742  -17.9901   -2.2736 N   0  0  0  0  0  4  0  0  0  0  0  0
  113.4974  -16.7890   -3.8409 N   0  0  0  0  0  4  0  0  0  0  0  0
  112.5562  -12.5295   -5.3597 N   0  0  0  0  0  4  0  0  0  0  0  0
  111.8610  -13.0002  -12.4245 N   0  0  0  0  0  4  0  0  0  0  0  0
  108.4453  -16.4472   -4.8282 O   0  0  0  0  0  0  0  0  0  0  0  0
  108.9538  -16.5526   -7.8265 O   0  0  0  0  0  0  0  0  0  0  0  0
  107.5557  -19.5601   -6.7154 O   0  0  0  0  0  0  0  0  0  0  0  0
  106.0111  -16.4691   -6.2228 O   0  0  0  0  0  0  0  0  0  0  0  0
  110.4513  -16.2486   -5.7857 O   0  0  0  0  0  0  0  0  0  0  0  0
  113.9121  -16.3706   -6.4150 O   0  0  0  0  0  0  0  0  0  0  0  0
  111.7034  -14.0925   -7.7862 O   0  0  0  0  0  0  0  0  0  0  0  0
  113.2046  -15.0507   -9.1971 O   0  0  0  0  0  0  0  0  0  0  0  0
  110.4712  -14.6204  -10.1196 O   0  0  0  0  0  0  0  0  0  0  0  0
  114.4809  -13.9759  -12.3356 O   0  0  0  0  0  0  0  0  0  0  0  0
  116.3792  -15.4036   -9.3182 O   0  0  0  0  0  0  0  0  0  0  0  0
  1  2  1  0
  1 23  1  0
  1 27  1  6
  2  3  1  0
  2 24  1  6
  3  4  1  0
  3 25  1  1
  5  4  1  0
  4 26  1  6
  5  6  1  6
 23  5  1  0
  6 19  1  0
  8  7  1  0
  7 12  1  0
  7 21  1  6
  8  9  1  0
  8 29  1  6
  9 10  1  0
  9 28  1  1
 10 11  1  0
 10 27  1  6
 12 11  1  0
 11 20  1  6
 13 14  1  0
 13 29  1  1
 13 30  1  0
 14 15  1  0
 14 31  1  1
 15 16  1  0
 15 22  1  6
 16 17  1  0
 16 32  1  6
 17 18  1  1
 17 30  1  0
 18 33  1  0
M  CHG  4  19   1  20   1  21   1  22   1
M  END
$$$$
