
     RDKit          3D

 33 35  0  0  0  0  0  0  0  0999 V2000
  105.3997  -16.9420   -5.5346 C   0  0  2  0  0  0  0  0  0  0  0  0
  105.6279  -18.4441   -5.5771 C   0  0  1  0  0  0  0  0  0  0  0  0
  104.4106  -19.2482   -5.2748 C   0  0  2  0  0  0  0  0  0  0  0  0
  103.1125  -18.5658   -5.5900 C   0  0  1  0  0  0  0  0  0  0  0  0
  103.1276  -17.0864   -5.3896 C   0  0  1  0  0  0  0  0  0  0  0  0
  103.0283  -16.6920   -3.9442 C   0  0  0  0  0  0  0  0  0  0  0  0
  108.0850  -15.2054   -8.2614 C   0  0  1  0  0  0  0  0  0  0  0  0
  108.9970  -15.8548   -7.2877 C   0  0  1  0  0  0  0  0  0  0  0  0
  108.5446  -15.5924   -5.9064 C   0  0  2  0  0  0  0  0  0  0  0  0
  107.0656  -15.3089   -5.8005 C   0  0  1  0  0  0  0  0  0  0  0  0
  106.8185  -13.9837   -6.4613 C   0  0  2  0  0  0  0  0  0  0  0  0
  107.5389  -13.9064   -7.7779 C   0  0  0  0  0  0  0  0  0  0  0  0
  110.4907  -17.6199   -7.2556 C   0  0  1  0  0  0  0  0  0  0  0  0
  111.2732  -18.0016   -8.5160 C   0  0  1  0  0  0  0  0  0  0  0  0
  112.4946  -18.8047   -8.0905 C   0  0  2  0  0  0  0  0  0  0  0  0
  112.8467  -18.4791   -6.6579 C   0  0  1  0  0  0  0  0  0  0  0  0
  111.7226  -18.8047   -5.7579 C   0  0  1  0  0  0  0  0  0  0  0  0
  111.8020  -18.0698   -4.4246 C   0  0  0  0  0  0  0  0  0  0  0  0
  101.8462  -15.8213   -3.8316 N   0  0  0  0  0  4  0  0  0  0  0  0
  107.2752  -12.8597   -5.6705 N   0  0  0  0  0  4  0  0  0  0  0  0
  108.8208  -14.9523   -9.4873 N   0  0  0  0  0  4  0  0  0  0  0  0
  113.5703  -18.4599   -8.9937 N   0  0  0  0  0  4  0  0  0  0  0  0
  104.1975  -16.5718   -6.0697 O   0  0  0  0  0  0  0  0  0  0  0  0
  106.0948  -18.8158   -6.8597 O   0  0  0  0  0  0  0  0  0  0  0  0
  104.3602  -19.6503   -3.9392 O   0  0  0  0  0  0  0  0  0  0  0  0
  102.7430  -18.8159   -6.9176 O   0  0  0  0  0  0  0  0  0  0  0  0
  106.4145  -16.3677   -6.2238 O   0  0  0  0  0  0  0  0  0  0  0  0
  109.2841  -14.5384   -5.3256 O   0  0  0  0  0  0  0  0  0  0  0  0
  109.2115  -17.2024   -7.5271 O   0  0  0  0  0  0  0  0  0  0  0  0
  110.5001  -18.6620   -6.3558 O   0  0  0  0  0  0  0  0  0  0  0  0
  110.4626  -18.8294   -9.2675 O   0  0  0  0  0  0  0  0  0  0  0  0
  114.0173  -19.1744   -6.3266 O   0  0  0  0  0  0  0  0  0  0  0  0
  110.7542  -17.2021   -4.2531 O   0  0  0  0  0  0  0  0  0  0  0  0
  1  2  1  0
  1 23  1  0
  1 27  1  6
  2  3  1  0
  2 24  1  6
  3  4  1  0
  3 25  1  1
  5  4  1  0
  4 26  1  6
  5  6  1  1
 23  5  1  0
  6 19  1  0
  8  7  1  0
  7 12  1  0
  7 21  1  6
  8  9  1  0
  8 29  1  6
  9 10  1  0
  9 28  1  6
 10 11  1  0
 10 27  1  6
 12 11  1  0
 11 20  1  1
 13 14  1  0
 13 29  1  6
 13 30  1  0
 14 15  1  0
 14 31  1  6
 15 16  1  0
 15 22  1  6
 16 17  1  0
 16 32  1  1
 17 18  1  1
 17 30  1  0
 18 33  1  0
M  CHG  4  19   1  20   1  21   1  22   1
M  END
$$$$
