
     RDKit          3D

 33 35  0  0  0  0  0  0  0  0999 V2000
  108.6922  -14.4018  -10.0949 C   0  0  2  0  0  0  0  0  0  0  0  0
  108.6022  -15.8953  -10.3629 C   0  0  1  0  0  0  0  0  0  0  0  0
  107.7251  -16.2500  -11.5139 C   0  0  2  0  0  0  0  0  0  0  0  0
  107.5921  -15.1792  -12.5559 C   0  0  1  0  0  0  0  0  0  0  0  0
  107.6330  -13.7866  -12.0195 C   0  0  1  0  0  0  0  0  0  0  0  0
  106.3427  -13.3718  -11.3733 C   0  0  0  0  0  0  0  0  0  0  0  0
  112.2681  -14.2884   -7.8602 C   0  0  1  0  0  0  0  0  0  0  0  0
  111.1754  -14.1772   -6.8625 C   0  0  1  0  0  0  0  0  0  0  0  0
  110.1606  -13.2058   -7.3186 C   0  0  2  0  0  0  0  0  0  0  0  0
  110.1166  -13.0400   -8.8185 C   0  0  1  0  0  0  0  0  0  0  0  0
  111.3934  -12.3652   -9.2287 C   0  0  2  0  0  0  0  0  0  0  0  0
  112.5711  -13.0004   -8.5447 C   0  0  0  0  0  0  0  0  0  0  0  0
  111.2188  -15.9759   -5.4098 C   0  0  1  0  0  0  0  0  0  0  0  0
  112.5918  -16.5721   -5.7352 C   0  0  1  0  0  0  0  0  0  0  0  0
  112.9795  -17.5146   -4.6043 C   0  0  2  0  0  0  0  0  0  0  0  0
  112.2393  -17.1322   -3.3439 C   0  0  1  0  0  0  0  0  0  0  0  0
  110.7799  -17.2099   -3.5526 C   0  0  1  0  0  0  0  0  0  0  0  0
  109.9938  -16.3909   -2.5351 C   0  0  0  0  0  0  0  0  0  0  0  0
  106.1103  -11.9731  -11.7704 N   0  0  0  0  0  4  0  0  0  0  0  0
  111.4264  -10.9570   -8.8919 N   0  0  0  0  0  4  0  0  0  0  0  0
  113.4734  -14.7272   -7.1798 N   0  0  0  0  0  4  0  0  0  0  0  0
  114.4117  -17.4109   -4.4316 N   0  0  0  0  0  4  0  0  0  0  0  0
  108.7509  -13.6589  -11.2409 O   0  0  0  0  0  0  0  0  0  0  0  0
  109.8952  -16.4090  -10.6187 O   0  0  0  0  0  0  0  0  0  0  0  0
  106.4373  -16.6038  -11.1085 O   0  0  0  0  0  0  0  0  0  0  0  0
  108.6098  -15.3022  -13.5103 O   0  0  0  0  0  0  0  0  0  0  0  0
  109.8050  -14.1997   -9.3497 O   0  0  0  0  0  0  0  0  0  0  0  0
  110.3479  -11.9517   -6.6964 O   0  0  0  0  0  0  0  0  0  0  0  0
  110.6185  -15.3920   -6.4975 O   0  0  0  0  0  0  0  0  0  0  0  0
  110.4080  -16.9316   -4.8397 O   0  0  0  0  0  0  0  0  0  0  0  0
  112.4506  -17.3247   -6.8844 O   0  0  0  0  0  0  0  0  0  0  0  0
  112.6780  -17.9684   -2.3086 O   0  0  0  0  0  0  0  0  0  0  0  0
  108.6540  -16.3603   -2.8251 O   0  0  0  0  0  0  0  0  0  0  0  0
  1  2  1  0
  1 23  1  0
  1 27  1  1
  2  3  1  0
  2 24  1  6
  3  4  1  0
  3 25  1  1
  5  4  1  0
  4 26  1  6
  5  6  1  1
 23  5  1  0
  6 19  1  0
  8  7  1  0
  7 12  1  0
  7 21  1  1
  8  9  1  0
  8 29  1  6
  9 10  1  0
  9 28  1  1
 10 11  1  0
 10 27  1  6
 12 11  1  0
 11 20  1  1
 13 14  1  0
 13 29  1  6
 13 30  1  0
 14 15  1  0
 14 31  1  6
 15 16  1  0
 15 22  1  1
 16 17  1  0
 16 32  1  1
 17 18  1  1
 17 30  1  0
 18 33  1  0
M  CHG  4  19   1  20   1  21   1  22   1
M  END
$$$$
