
     RDKit          3D

 33 35  0  0  0  0  0  0  0  0999 V2000
  112.2297  -15.5410   -8.4113 C   0  0  2  0  0  0  0  0  0  0  0  0
  111.6522  -16.9468   -8.4331 C   0  0  1  0  0  0  0  0  0  0  0  0
  112.6827  -18.0228   -8.4125 C   0  0  2  0  0  0  0  0  0  0  0  0
  113.9821  -17.6361   -7.7707 C   0  0  1  0  0  0  0  0  0  0  0  0
  114.3655  -16.2062   -7.9644 C   0  0  1  0  0  0  0  0  0  0  0  0
  114.9154  -15.9296   -9.3339 C   0  0  0  0  0  0  0  0  0  0  0  0
  110.2247  -12.8559   -6.0515 C   0  0  1  0  0  0  0  0  0  0  0  0
  109.1061  -13.1387   -6.9845 C   0  0  1  0  0  0  0  0  0  0  0  0
  109.5940  -13.1634   -8.3784 C   0  0  2  0  0  0  0  0  0  0  0  0
  111.0590  -13.5076   -8.4980 C   0  0  1  0  0  0  0  0  0  0  0  0
  111.8340  -12.3580   -7.9219 C   0  0  2  0  0  0  0  0  0  0  0  0
  111.2364  -11.9188   -6.6150 C   0  0  0  0  0  0  0  0  0  0  0  0
  107.1168  -14.2951   -7.2143 C   0  0  1  0  0  0  0  0  0  0  0  0
  106.2597  -15.4526   -6.6924 C   0  0  1  0  0  0  0  0  0  0  0  0
  105.0747  -15.6262   -7.6323 C   0  0  2  0  0  0  0  0  0  0  0  0
  104.8108  -14.3323   -8.3664 C   0  0  1  0  0  0  0  0  0  0  0  0
  105.9922  -13.9302   -9.1551 C   0  0  1  0  0  0  0  0  0  0  0  0
  105.9905  -12.4466   -9.5059 C   0  0  0  0  0  0  0  0  0  0  0  0
  116.1513  -15.1541   -9.1364 N   0  0  0  0  0  4  0  0  0  0  0  0
  111.8507  -11.1943   -8.7838 N   0  0  0  0  0  4  0  0  0  0  0  0
  109.6816  -12.2554   -4.8462 N   0  0  0  0  0  4  0  0  0  0  0  0
  103.9411  -16.0198   -6.8248 N   0  0  0  0  0  4  0  0  0  0  0  0
  113.3105  -15.4232   -7.5826 O   0  0  0  0  0  0  0  0  0  0  0  0
  110.8036  -17.1273   -7.3158 O   0  0  0  0  0  0  0  0  0  0  0  0
  112.9720  -18.5029   -9.6907 O   0  0  0  0  0  0  0  0  0  0  0  0
  113.9360  -17.8859   -6.3933 O   0  0  0  0  0  0  0  0  0  0  0  0
  111.2381  -14.7119   -8.0064 O   0  0  0  0  0  0  0  0  0  0  0  0
  109.3284  -11.9371   -9.0271 O   0  0  0  0  0  0  0  0  0  0  0  0
  108.3726  -14.2684   -6.6607 O   0  0  0  0  0  0  0  0  0  0  0  0
  107.1733  -14.3273   -8.5897 O   0  0  0  0  0  0  0  0  0  0  0  0
  107.0285  -16.5975   -6.7641 O   0  0  0  0  0  0  0  0  0  0  0  0
  103.6695  -14.5054   -9.1608 O   0  0  0  0  0  0  0  0  0  0  0  0
  105.1824  -11.7217   -8.6683 O   0  0  0  0  0  0  0  0  0  0  0  0
  1  2  1  0
  1 23  1  0
  1 27  1  1
  2  3  1  0
  2 24  1  1
  3  4  1  0
  3 25  1  6
  5  4  1  0
  4 26  1  1
  5  6  1  6
 23  5  1  0
  6 19  1  0
  8  7  1  0
  7 12  1  0
  7 21  1  1
  8  9  1  0
  8 29  1  1
  9 10  1  0
  9 28  1  1
 10 11  1  0
 10 27  1  1
 12 11  1  0
 11 20  1  6
 13 14  1  0
 13 29  1  1
 13 30  1  0
 14 15  1  0
 14 31  1  6
 15 16  1  0
 15 22  1  1
 16 17  1  0
 16 32  1  6
 17 18  1  1
 17 30  1  0
 18 33  1  0
M  CHG  4  19   1  20   1  21   1  22   1
M  END
$$$$
