
     RDKit          3D

 33 35  0  0  0  0  0  0  0  0999 V2000
  108.2085  -17.4297   -6.5984 C   0  0  2  0  0  0  0  0  0  0  0  0
  108.2813  -18.6463   -7.5066 C   0  0  1  0  0  0  0  0  0  0  0  0
  107.2724  -19.6963   -7.1909 C   0  0  2  0  0  0  0  0  0  0  0  0
  106.0253  -19.1904   -6.5283 C   0  0  1  0  0  0  0  0  0  0  0  0
  106.2384  -18.0280   -5.6160 C   0  0  1  0  0  0  0  0  0  0  0  0
  106.8267  -18.4246   -4.2927 C   0  0  0  0  0  0  0  0  0  0  0  0
  109.7270  -14.9447   -9.5483 C   0  0  1  0  0  0  0  0  0  0  0  0
  110.4932  -14.4158   -8.3929 C   0  0  1  0  0  0  0  0  0  0  0  0
  109.6107  -14.2625   -7.2185 C   0  0  2  0  0  0  0  0  0  0  0  0
  108.4126  -15.1807   -7.2412 C   0  0  1  0  0  0  0  0  0  0  0  0
  107.5207  -14.7200   -8.3575 C   0  0  2  0  0  0  0  0  0  0  0  0
  108.3233  -14.4482   -9.5985 C   0  0  0  0  0  0  0  0  0  0  0  0
  112.4750  -14.5107   -7.2052 C   0  0  1  0  0  0  0  0  0  0  0  0
  113.9509  -14.8596   -7.4215 C   0  0  1  0  0  0  0  0  0  0  0  0
  114.7216  -14.4551   -6.1726 C   0  0  2  0  0  0  0  0  0  0  0  0
  113.9637  -13.3794   -5.4303 C   0  0  1  0  0  0  0  0  0  0  0  0
  112.6272  -13.8638   -5.0320 C   0  0  1  0  0  0  0  0  0  0  0  0
  111.6519  -12.7296   -4.7381 C   0  0  0  0  0  0  0  0  0  0  0  0
  106.0396  -17.7266   -3.2624 N   0  0  0  0  0  4  0  0  0  0  0  0
  106.8066  -13.4986   -8.0480 N   0  0  0  0  0  4  0  0  0  0  0  0
  110.3909  -14.5323  -10.7720 N   0  0  0  0  0  4  0  0  0  0  0  0
  116.0213  -13.9888   -6.6030 N   0  0  0  0  0  4  0  0  0  0  0  0
  106.9251  -17.0637   -6.3021 O   0  0  0  0  0  0  0  0  0  0  0  0
  108.0952  -18.2455   -8.8504 O   0  0  0  0  0  0  0  0  0  0  0  0
  107.7960  -20.7076   -6.3840 O   0  0  0  0  0  0  0  0  0  0  0  0
  105.0828  -18.8125   -7.4930 O   0  0  0  0  0  0  0  0  0  0  0  0
  108.8465  -16.4201   -7.2371 O   0  0  0  0  0  0  0  0  0  0  0  0
  109.1922  -12.9212   -7.0742 O   0  0  0  0  0  0  0  0  0  0  0  0
  111.6420  -15.1330   -8.1014 O   0  0  0  0  0  0  0  0  0  0  0  0
  112.1080  -14.7799   -5.9057 O   0  0  0  0  0  0  0  0  0  0  0  0
  114.0343  -16.2326   -7.5448 O   0  0  0  0  0  0  0  0  0  0  0  0
  114.7372  -12.9776   -4.3331 O   0  0  0  0  0  0  0  0  0  0  0  0
  112.2465  -11.4990   -4.8493 O   0  0  0  0  0  0  0  0  0  0  0  0
  1  2  1  0
  1 23  1  0
  1 27  1  6
  2  3  1  0
  2 24  1  6
  3  4  1  0
  3 25  1  1
  5  4  1  0
  4 26  1  6
  5  6  1  1
 23  5  1  0
  6 19  1  0
  8  7  1  0
  7 12  1  0
  7 21  1  6
  8  9  1  0
  8 29  1  1
  9 10  1  0
  9 28  1  6
 10 11  1  0
 10 27  1  6
 12 11  1  0
 11 20  1  1
 13 14  1  0
 13 29  1  6
 13 30  1  0
 14 15  1  0
 14 31  1  1
 15 16  1  0
 15 22  1  6
 16 17  1  0
 16 32  1  1
 17 18  1  6
 17 30  1  0
 18 33  1  0
M  CHG  4  19   1  20   1  21   1  22   1
M  END
$$$$
