
     RDKit          3D

 33 35  0  0  0  0  0  0  0  0999 V2000
  109.0005  -15.4059  -10.6446 C   0  0  2  0  0  0  0  0  0  0  0  0
  108.6810  -14.7154  -11.9604 C   0  0  1  0  0  0  0  0  0  0  0  0
  107.2240  -14.6360  -12.2620 C   0  0  2  0  0  0  0  0  0  0  0  0
  106.3314  -14.6461  -11.0564 C   0  0  1  0  0  0  0  0  0  0  0  0
  106.8386  -15.4694   -9.9190 C   0  0  1  0  0  0  0  0  0  0  0  0
  106.6365  -16.9424  -10.1287 C   0  0  0  0  0  0  0  0  0  0  0  0
  113.0736  -14.8197   -9.7395 C   0  0  1  0  0  0  0  0  0  0  0  0
  112.3658  -14.2270   -8.5778 C   0  0  1  0  0  0  0  0  0  0  0  0
  111.2335  -13.3965   -9.0356 C   0  0  2  0  0  0  0  0  0  0  0  0
  110.6961  -13.8025  -10.3868 C   0  0  1  0  0  0  0  0  0  0  0  0
  111.7506  -13.4704  -11.4025 C   0  0  2  0  0  0  0  0  0  0  0  0
  113.1030  -13.9230  -10.9288 C   0  0  0  0  0  0  0  0  0  0  0  0
  112.5479  -14.9255   -6.3809 C   0  0  1  0  0  0  0  0  0  0  0  0
  112.2653  -16.0548   -5.3851 C   0  0  1  0  0  0  0  0  0  0  0  0
  112.5709  -15.5400   -3.9854 C   0  0  2  0  0  0  0  0  0  0  0  0
  113.5476  -14.3901   -4.0657 C   0  0  1  0  0  0  0  0  0  0  0  0
  112.9878  -13.2859   -4.8700 C   0  0  1  0  0  0  0  0  0  0  0  0
  114.0591  -12.3392   -5.3992 C   0  0  0  0  0  0  0  0  0  0  0  0
  106.1746  -17.4857   -8.8405 N   0  0  0  0  0  4  0  0  0  0  0  0
  111.8567  -12.0509  -11.6691 N   0  0  0  0  0  4  0  0  0  0  0  0
  114.4459  -15.0957   -9.3539 N   0  0  0  0  0  4  0  0  0  0  0  0
  113.1146  -16.6474   -3.2305 N   0  0  0  0  0  4  0  0  0  0  0  0
  108.1227  -15.0825   -9.6478 O   0  0  0  0  0  0  0  0  0  0  0  0
  109.2002  -13.3997  -11.9427 O   0  0  0  0  0  0  0  0  0  0  0  0
  106.8015  -15.6641  -13.1060 O   0  0  0  0  0  0  0  0  0  0  0  0
  106.1344  -13.3409  -10.5880 O   0  0  0  0  0  0  0  0  0  0  0  0
  110.2569  -15.0368  -10.2986 O   0  0  0  0  0  0  0  0  0  0  0  0
  111.5828  -12.0279   -9.0429 O   0  0  0  0  0  0  0  0  0  0  0  0
  111.9900  -15.1494   -7.6150 O   0  0  0  0  0  0  0  0  0  0  0  0
  112.1446  -13.7175   -5.8575 O   0  0  0  0  0  0  0  0  0  0  0  0
  110.9136  -16.3302   -5.4496 O   0  0  0  0  0  0  0  0  0  0  0  0
  113.8651  -13.9943   -2.7595 O   0  0  0  0  0  0  0  0  0  0  0  0
  115.2354  -12.4546   -4.7041 O   0  0  0  0  0  0  0  0  0  0  0  0
  1  2  1  0
  1 23  1  0
  1 27  1  1
  2  3  1  0
  2 24  1  1
  3  4  1  0
  3 25  1  6
  5  4  1  0
  4 26  1  1
  5  6  1  6
 23  5  1  0
  6 19  1  0
  8  7  1  0
  7 12  1  0
  7 21  1  1
  8  9  1  0
  8 29  1  1
  9 10  1  0
  9 28  1  6
 10 11  1  0
 10 27  1  1
 12 11  1  0
 11 20  1  1
 13 14  1  0
 13 29  1  6
 13 30  1  0
 14 15  1  0
 14 31  1  1
 15 16  1  0
 15 22  1  1
 16 17  1  0
 16 32  1  1
 17 18  1  6
 17 30  1  0
 18 33  1  0
M  CHG  4  19   1  20   1  21   1  22   1
M  END
$$$$
