
     RDKit          3D

 33 35  0  0  0  0  0  0  0  0999 V2000
  110.2622  -15.0304  -10.2384 C   0  0  2  0  0  0  0  0  0  0  0  0
  109.1425  -16.0303  -10.0002 C   0  0  1  0  0  0  0  0  0  0  0  0
  108.4919  -16.5165  -11.2493 C   0  0  2  0  0  0  0  0  0  0  0  0
  109.3641  -16.4756  -12.4690 C   0  0  1  0  0  0  0  0  0  0  0  0
  110.3339  -15.3409  -12.4973 C   0  0  1  0  0  0  0  0  0  0  0  0
  109.6927  -14.0339  -12.8648 C   0  0  0  0  0  0  0  0  0  0  0  0
  113.3246  -15.7406   -7.5522 C   0  0  1  0  0  0  0  0  0  0  0  0
  112.3610  -15.1126   -6.6147 C   0  0  1  0  0  0  0  0  0  0  0  0
  111.7424  -13.9232   -7.2347 C   0  0  2  0  0  0  0  0  0  0  0  0
  111.7288  -13.9686   -8.7436 C   0  0  1  0  0  0  0  0  0  0  0  0
  113.1526  -13.8495   -9.2046 C   0  0  2  0  0  0  0  0  0  0  0  0
  114.0463  -14.7520   -8.4015 C   0  0  0  0  0  0  0  0  0  0  0  0
  111.2092  -15.8515   -4.7506 C   0  0  1  0  0  0  0  0  0  0  0  0
  110.3140  -16.9514   -4.1714 C   0  0  1  0  0  0  0  0  0  0  0  0
  109.8289  -16.4958   -2.8022 C   0  0  2  0  0  0  0  0  0  0  0  0
  110.7843  -15.4712   -2.2365 C   0  0  1  0  0  0  0  0  0  0  0  0
  110.8765  -14.2970   -3.1266 C   0  0  1  0  0  0  0  0  0  0  0  0
  112.1425  -13.4796   -2.8959 C   0  0  0  0  0  0  0  0  0  0  0  0
  110.7357  -13.2306  -13.5242 N   0  0  0  0  0  4  0  0  0  0  0  0
  113.6844  -12.5093   -9.0687 N   0  0  0  0  0  4  0  0  0  0  0  0
  114.3129  -16.4715   -6.7793 N   0  0  0  0  0  4  0  0  0  0  0  0
  109.7509  -17.6705   -1.9622 N   0  0  0  0  0  4  0  0  0  0  0  0
  111.0341  -15.3450  -11.3218 O   0  0  0  0  0  0  0  0  0  0  0  0
  109.6496  -17.1511   -9.3017 O   0  0  0  0  0  0  0  0  0  0  0  0
  107.3229  -15.8138  -11.5451 O   0  0  0  0  0  0  0  0  0  0  0  0
  110.0923  -17.6664  -12.5845 O   0  0  0  0  0  0  0  0  0  0  0  0
  111.0194  -15.0090   -9.1156 O   0  0  0  0  0  0  0  0  0  0  0  0
  112.3704  -12.7389   -6.7898 O   0  0  0  0  0  0  0  0  0  0  0  0
  111.4207  -15.9901   -6.0998 O   0  0  0  0  0  0  0  0  0  0  0  0
  110.6959  -14.6107   -4.4462 O   0  0  0  0  0  0  0  0  0  0  0  0
  109.2121  -17.0608   -4.9966 O   0  0  0  0  0  0  0  0  0  0  0  0
  110.3504  -15.1339   -0.9475 O   0  0  0  0  0  0  0  0  0  0  0  0
  112.7391  -13.1128   -4.0748 O   0  0  0  0  0  0  0  0  0  0  0  0
  1  2  1  0
  1 23  1  0
  1 27  1  1
  2  3  1  0
  2 24  1  6
  3  4  1  0
  3 25  1  6
  5  4  1  0
  4 26  1  1
  5  6  1  1
 23  5  1  0
  6 19  1  0
  8  7  1  0
  7 12  1  0
  7 21  1  1
  8  9  1  0
  8 29  1  6
  9 10  1  0
  9 28  1  6
 10 11  1  0
 10 27  1  1
 12 11  1  0
 11 20  1  1
 13 14  1  0
 13 29  1  6
 13 30  1  0
 14 15  1  0
 14 31  1  6
 15 16  1  0
 15 22  1  1
 16 17  1  0
 16 32  1  1
 17 18  1  6
 17 30  1  0
 18 33  1  0
M  CHG  4  19   1  20   1  21   1  22   1
M  END
$$$$
