
     RDKit          3D

 33 35  0  0  0  0  0  0  0  0999 V2000
  106.6795    8.8220   -0.9762 C   0  0  2  0  0  0  0  0  0  0  0  0
  107.9806    9.6078   -0.9676 C   0  0  1  0  0  0  0  0  0  0  0  0
  108.1986   10.4004    0.2750 C   0  0  2  0  0  0  0  0  0  0  0  0
  107.5121    9.8591    1.4940 C   0  0  1  0  0  0  0  0  0  0  0  0
  106.2014    9.1977    1.2225 C   0  0  1  0  0  0  0  0  0  0  0  0
  105.0902   10.1793    0.9852 C   0  0  0  0  0  0  0  0  0  0  0  0
  106.5535    5.9013   -4.0162 C   0  0  1  0  0  0  0  0  0  0  0  0
  106.3540    5.1742   -2.7382 C   0  0  1  0  0  0  0  0  0  0  0  0
  107.3298    5.6329   -1.7287 C   0  0  2  0  0  0  0  0  0  0  0  0
  107.8332    7.0354   -1.9711 C   0  0  1  0  0  0  0  0  0  0  0  0
  108.6732    6.9974   -3.2149 C   0  0  2  0  0  0  0  0  0  0  0  0
  107.9827    6.2148   -4.2961 C   0  0  0  0  0  0  0  0  0  0  0  0
  104.5514    3.9744   -1.9266 C   0  0  1  0  0  0  0  0  0  0  0  0
  103.1196    3.7535   -2.4244 C   0  0  1  0  0  0  0  0  0  0  0  0
  102.5354    2.5641   -1.6749 C   0  0  2  0  0  0  0  0  0  0  0  0
  103.6516    1.6802   -1.1695 C   0  0  1  0  0  0  0  0  0  0  0  0
  104.5391    2.4306   -0.2590 C   0  0  1  0  0  0  0  0  0  0  0  0
  105.9130    1.7868   -0.1108 C   0  0  0  0  0  0  0  0  0  0  0  0
  103.9407    9.7034    1.7726 N   0  0  0  0  0  4  0  0  0  0  0  0
  109.9646    6.3745   -3.0104 N   0  0  0  0  0  4  0  0  0  0  0  0
  106.0564    5.0747   -5.1015 N   0  0  0  0  0  4  0  0  0  0  0  0
  101.6740    1.8574   -2.5970 N   0  0  0  0  0  4  0  0  0  0  0  0
  106.3864    8.2660    0.2377 O   0  0  0  0  0  0  0  0  0  0  0  0
  109.0709    8.7197   -1.1215 O   0  0  0  0  0  0  0  0  0  0  0  0
  107.8071   11.7320    0.1289 O   0  0  0  0  0  0  0  0  0  0  0  0
  108.3360    8.9305    2.1425 O   0  0  0  0  0  0  0  0  0  0  0  0
  106.8080    7.8538   -1.9147 O   0  0  0  0  0  0  0  0  0  0  0  0
  108.4169    4.7360   -1.6346 O   0  0  0  0  0  0  0  0  0  0  0  0
  105.0514    5.2065   -2.2677 O   0  0  0  0  0  0  0  0  0  0  0  0
  104.6212    3.7610   -0.5682 O   0  0  0  0  0  0  0  0  0  0  0  0
  102.3878    4.8727   -2.0794 O   0  0  0  0  0  0  0  0  0  0  0  0
  103.0774    0.5593   -0.5552 O   0  0  0  0  0  0  0  0  0  0  0  0
  106.1431    0.8395   -1.0751 O   0  0  0  0  0  0  0  0  0  0  0  0
  1  2  1  0
  1 23  1  0
  1 27  1  6
  2  3  1  0
  2 24  1  1
  3  4  1  0
  3 25  1  6
  5  4  1  0
  4 26  1  6
  5  6  1  6
 23  5  1  0
  6 19  1  0
  8  7  1  0
  7 12  1  0
  7 21  1  6
  8  9  1  0
  8 29  1  1
  9 10  1  0
  9 28  1  6
 10 11  1  0
 10 27  1  6
 12 11  1  0
 11 20  1  1
 13 14  1  0
 13 29  1  1
 13 30  1  0
 14 15  1  0
 14 31  1  1
 15 16  1  0
 15 22  1  6
 16 17  1  0
 16 32  1  1
 17 18  1  6
 17 30  1  0
 18 33  1  0
M  CHG  4  19   1  20   1  21   1  22   1
M  END
$$$$
