
     RDKit          3D

 33 35  0  0  0  0  0  0  0  0999 V2000
  109.1195  -16.0341   -9.6342 C   0  0  2  0  0  0  0  0  0  0  0  0
  108.7241  -15.4669  -10.9878 C   0  0  1  0  0  0  0  0  0  0  0  0
  107.6019  -16.1958  -11.6430 C   0  0  2  0  0  0  0  0  0  0  0  0
  106.6707  -16.8959  -10.6981 C   0  0  1  0  0  0  0  0  0  0  0  0
  107.3269  -17.4356   -9.4705 C   0  0  1  0  0  0  0  0  0  0  0  0
  108.0859  -18.7060   -9.7247 C   0  0  0  0  0  0  0  0  0  0  0  0
  110.6482  -12.3129   -9.0895 C   0  0  1  0  0  0  0  0  0  0  0  0
  111.3559  -12.9263   -7.9386 C   0  0  1  0  0  0  0  0  0  0  0  0
  110.4409  -13.8053   -7.1825 C   0  0  2  0  0  0  0  0  0  0  0  0
  109.3017  -14.3459   -8.0126 C   0  0  1  0  0  0  0  0  0  0  0  0
  108.4074  -13.1877   -8.3479 C   0  0  2  0  0  0  0  0  0  0  0  0
  109.2182  -12.0076   -8.8041 C   0  0  0  0  0  0  0  0  0  0  0  0
  113.4089  -13.7169   -7.2260 C   0  0  1  0  0  0  0  0  0  0  0  0
  114.8785  -13.6334   -7.6502 C   0  0  1  0  0  0  0  0  0  0  0  0
  115.7301  -14.2011   -6.5232 C   0  0  2  0  0  0  0  0  0  0  0  0
  114.9760  -14.1100   -5.2172 C   0  0  1  0  0  0  0  0  0  0  0  0
  113.7121  -14.8693   -5.2909 C   0  0  1  0  0  0  0  0  0  0  0  0
  112.6988  -14.4321   -4.2393 C   0  0  0  0  0  0  0  0  0  0  0  0
  108.2097  -19.3833   -8.4232 N   0  0  0  0  0  4  0  0  0  0  0  0
  107.6138  -12.7374   -7.2233 N   0  0  0  0  0  4  0  0  0  0  0  0
  111.3117  -11.0671   -9.4304 N   0  0  0  0  0  4  0  0  0  0  0  0
  116.9557  -13.4342   -6.4838 N   0  0  0  0  0  4  0  0  0  0  0  0
  108.0437  -16.4264   -8.8876 O   0  0  0  0  0  0  0  0  0  0  0  0
  108.3441  -14.1122  -10.8406 O   0  0  0  0  0  0  0  0  0  0  0  0
  108.0521  -17.1407  -12.5662 O   0  0  0  0  0  0  0  0  0  0  0  0
  105.6484  -16.0285  -10.2929 O   0  0  0  0  0  0  0  0  0  0  0  0
  109.8101  -15.0661   -8.9857 O   0  0  0  0  0  0  0  0  0  0  0  0
  109.9385  -13.1454   -6.0391 O   0  0  0  0  0  0  0  0  0  0  0  0
  112.5398  -13.5611   -8.2771 O   0  0  0  0  0  0  0  0  0  0  0  0
  113.1750  -14.8929   -6.5492 O   0  0  0  0  0  0  0  0  0  0  0  0
  115.0347  -14.4507   -8.7523 O   0  0  0  0  0  0  0  0  0  0  0  0
  115.8172  -14.5674   -4.1940 O   0  0  0  0  0  0  0  0  0  0  0  0
  113.1561  -13.3768   -3.4926 O   0  0  0  0  0  0  0  0  0  0  0  0
  1  2  1  0
  1 23  1  0
  1 27  1  1
  2  3  1  0
  2 24  1  1
  3  4  1  0
  3 25  1  6
  5  4  1  0
  4 26  1  1
  5  6  1  6
 23  5  1  0
  6 19  1  0
  8  7  1  0
  7 12  1  0
  7 21  1  1
  8  9  1  0
  8 29  1  6
  9 10  1  0
  9 28  1  1
 10 11  1  0
 10 27  1  6
 12 11  1  0
 11 20  1  1
 13 14  1  0
 13 29  1  6
 13 30  1  0
 14 15  1  0
 14 31  1  6
 15 16  1  0
 15 22  1  1
 16 17  1  0
 16 32  1  1
 17 18  1  1
 17 30  1  0
 18 33  1  0
M  CHG  4  19   1  20   1  21   1  22   1
M  END
$$$$
