
     RDKit          3D

 33 35  0  0  0  0  0  0  0  0999 V2000
  106.6464  -12.8903   -9.1435 C   0  0  2  0  0  0  0  0  0  0  0  0
  106.3651  -13.9016   -8.0442 C   0  0  1  0  0  0  0  0  0  0  0  0
  104.9624  -14.4038   -8.0307 C   0  0  2  0  0  0  0  0  0  0  0  0
  104.2670  -14.3610   -9.3591 C   0  0  1  0  0  0  0  0  0  0  0  0
  104.6665  -13.2153  -10.2290 C   0  0  1  0  0  0  0  0  0  0  0  0
  104.0345  -11.9183   -9.8130 C   0  0  0  0  0  0  0  0  0  0  0  0
  110.4680  -13.1403  -10.7509 C   0  0  1  0  0  0  0  0  0  0  0  0
  110.8249  -13.0162   -9.3159 C   0  0  1  0  0  0  0  0  0  0  0  0
  110.0029  -11.9723   -8.6709 C   0  0  2  0  0  0  0  0  0  0  0  0
  108.6799  -11.7365   -9.3587 C   0  0  1  0  0  0  0  0  0  0  0  0
  108.9770  -11.1131  -10.6918 C   0  0  2  0  0  0  0  0  0  0  0  0
  110.0984  -11.8406  -11.3782 C   0  0  0  0  0  0  0  0  0  0  0  0
  111.8023  -14.3448   -7.6952 C   0  0  1  0  0  0  0  0  0  0  0  0
  112.2129  -15.8020   -7.4615 C   0  0  1  0  0  0  0  0  0  0  0  0
  113.0187  -15.8664   -6.1715 C   0  0  2  0  0  0  0  0  0  0  0  0
  113.6244  -14.5135   -5.8792 C   0  0  1  0  0  0  0  0  0  0  0  0
  112.5698  -13.4906   -5.7341 C   0  0  1  0  0  0  0  0  0  0  0  0
  113.0921  -12.0722   -5.9321 C   0  0  0  0  0  0  0  0  0  0  0  0
  103.8189  -11.1465  -11.0483 N   0  0  0  0  0  4  0  0  0  0  0  0
  109.3797   -9.7254  -10.5938 N   0  0  0  0  0  4  0  0  0  0  0  0
  111.6124  -13.6734  -11.4681 N   0  0  0  0  0  4  0  0  0  0  0  0
  114.0376  -16.8769   -6.3524 N   0  0  0  0  0  4  0  0  0  0  0  0
  106.0314  -13.2032  -10.3235 O   0  0  0  0  0  0  0  0  0  0  0  0
  107.2298  -15.0117   -8.1897 O   0  0  0  0  0  0  0  0  0  0  0  0
  104.1631  -13.7167   -7.1159 O   0  0  0  0  0  0  0  0  0  0  0  0
  104.5059  -15.5440  -10.0699 O   0  0  0  0  0  0  0  0  0  0  0  0
  107.9898  -12.8526   -9.3125 O   0  0  0  0  0  0  0  0  0  0  0  0
  110.7194  -10.7595   -8.5668 O   0  0  0  0  0  0  0  0  0  0  0  0
  110.7979  -14.2148   -8.6218 O   0  0  0  0  0  0  0  0  0  0  0  0
  111.4660  -13.7478   -6.5009 O   0  0  0  0  0  0  0  0  0  0  0  0
  111.0543  -16.5299   -7.2741 O   0  0  0  0  0  0  0  0  0  0  0  0
  114.4201  -14.6296   -4.7316 O   0  0  0  0  0  0  0  0  0  0  0  0
  112.1023  -11.2113   -6.3311 O   0  0  0  0  0  0  0  0  0  0  0  0
  1  2  1  0
  1 23  1  0
  1 27  1  6
  2  3  1  0
  2 24  1  6
  3  4  1  0
  3 25  1  1
  5  4  1  0
  4 26  1  6
  5  6  1  1
 23  5  1  0
  6 19  1  0
  8  7  1  0
  7 12  1  0
  7 21  1  6
  8  9  1  0
  8 29  1  1
  9 10  1  0
  9 28  1  6
 10 11  1  0
 10 27  1  6
 12 11  1  0
 11 20  1  1
 13 14  1  0
 13 29  1  6
 13 30  1  0
 14 15  1  0
 14 31  1  1
 15 16  1  0
 15 22  1  6
 16 17  1  0
 16 32  1  1
 17 18  1  6
 17 30  1  0
 18 33  1  0
M  CHG  4  19   1  20   1  21   1  22   1
M  END
$$$$
