
     RDKit          3D

 33 35  0  0  0  0  0  0  0  0999 V2000
  107.4286  -19.1223   -6.7546 C   0  0  2  0  0  0  0  0  0  0  0  0
  108.6185  -19.2155   -5.8134 C   0  0  1  0  0  0  0  0  0  0  0  0
  109.5346  -20.3526   -6.1097 C   0  0  2  0  0  0  0  0  0  0  0  0
  109.5305  -20.8066   -7.5393 C   0  0  1  0  0  0  0  0  0  0  0  0
  108.2088  -20.6844   -8.2227 C   0  0  1  0  0  0  0  0  0  0  0  0
  107.2482  -21.7712   -7.8345 C   0  0  0  0  0  0  0  0  0  0  0  0
  106.0830  -15.2984   -5.6663 C   0  0  1  0  0  0  0  0  0  0  0  0
  105.2147  -16.3147   -5.0221 C   0  0  1  0  0  0  0  0  0  0  0  0
  104.8145  -17.3441   -6.0028 C   0  0  2  0  0  0  0  0  0  0  0  0
  105.7848  -17.4931   -7.1497 C   0  0  1  0  0  0  0  0  0  0  0  0
  105.6997  -16.2384   -7.9697 C   0  0  2  0  0  0  0  0  0  0  0  0
  105.7143  -15.0249   -7.0835 C   0  0  0  0  0  0  0  0  0  0  0  0
  104.8192  -17.1176   -2.8899 C   0  0  1  0  0  0  0  0  0  0  0  0
  105.4363  -17.7148   -1.6214 C   0  0  1  0  0  0  0  0  0  0  0  0
  104.3141  -18.3136   -0.7849 C   0  0  2  0  0  0  0  0  0  0  0  0
  103.0031  -17.6519   -1.1398 C   0  0  1  0  0  0  0  0  0  0  0  0
  102.6909  -17.8472   -2.5694 C   0  0  1  0  0  0  0  0  0  0  0  0
  101.6871  -16.8291   -3.0986 C   0  0  0  0  0  0  0  0  0  0  0  0
  106.6615  -22.2740   -9.0879 N   0  0  0  0  0  4  0  0  0  0  0  0
  104.4914  -16.1588   -8.7642 N   0  0  0  0  0  4  0  0  0  0  0  0
  105.9672  -14.0545   -4.9263 N   0  0  0  0  0  4  0  0  0  0  0  0
  104.6563  -18.1039    0.6047 N   0  0  0  0  0  4  0  0  0  0  0  0
  107.7536  -19.4055   -8.0518 O   0  0  0  0  0  0  0  0  0  0  0  0
  109.3676  -18.0172   -5.8776 O   0  0  0  0  0  0  0  0  0  0  0  0
  109.2682  -21.4679   -5.3140 O   0  0  0  0  0  0  0  0  0  0  0  0
  110.4676  -20.0776   -8.2824 O   0  0  0  0  0  0  0  0  0  0  0  0
  106.9459  -17.8605   -6.6587 O   0  0  0  0  0  0  0  0  0  0  0  0
  103.5148  -17.0926   -6.4954 O   0  0  0  0  0  0  0  0  0  0  0  0
  105.7487  -16.8633   -3.8675 O   0  0  0  0  0  0  0  0  0  0  0  0
  103.8084  -17.9289   -3.3547 O   0  0  0  0  0  0  0  0  0  0  0  0
  106.2675  -18.7451   -2.0150 O   0  0  0  0  0  0  0  0  0  0  0  0
  102.0098  -18.1706   -0.2984 O   0  0  0  0  0  0  0  0  0  0  0  0
  100.8370  -16.3879   -2.1174 O   0  0  0  0  0  0  0  0  0  0  0  0
  1  2  1  0
  1 23  1  0
  1 27  1  6
  2  3  1  0
  2 24  1  6
  3  4  1  0
  3 25  1  1
  5  4  1  0
  4 26  1  6
  5  6  1  1
 23  5  1  0
  6 19  1  0
  8  7  1  0
  7 12  1  0
  7 21  1  1
  8  9  1  0
  8 29  1  1
  9 10  1  0
  9 28  1  6
 10 11  1  0
 10 27  1  1
 12 11  1  0
 11 20  1  1
 13 14  1  0
 13 29  1  6
 13 30  1  0
 14 15  1  0
 14 31  1  6
 15 16  1  0
 15 22  1  1
 16 17  1  0
 16 32  1  1
 17 18  1  6
 17 30  1  0
 18 33  1  0
M  CHG  4  19   1  20   1  21   1  22   1
M  END
$$$$
