
     RDKit          3D

 33 35  0  0  0  0  0  0  0  0999 V2000
  109.0902  -17.2370   -6.9682 C   0  0  2  0  0  0  0  0  0  0  0  0
  108.0020  -17.6648   -7.9394 C   0  0  1  0  0  0  0  0  0  0  0  0
  106.9568  -18.5342   -7.3297 C   0  0  2  0  0  0  0  0  0  0  0  0
  106.7682  -18.3486   -5.8531 C   0  0  1  0  0  0  0  0  0  0  0  0
  108.0166  -18.0078   -5.1087 C   0  0  1  0  0  0  0  0  0  0  0  0
  108.9058  -19.1968   -4.8848 C   0  0  0  0  0  0  0  0  0  0  0  0
  110.8929  -14.3215   -9.3804 C   0  0  1  0  0  0  0  0  0  0  0  0
  111.4430  -13.9785   -8.0457 C   0  0  1  0  0  0  0  0  0  0  0  0
  110.3766  -14.0204   -7.0246 C   0  0  2  0  0  0  0  0  0  0  0  0
  109.2291  -14.9313   -7.3889 C   0  0  1  0  0  0  0  0  0  0  0  0
  108.5160  -14.3044   -8.5518 C   0  0  2  0  0  0  0  0  0  0  0  0
  109.5005  -13.8328   -9.5845 C   0  0  0  0  0  0  0  0  0  0  0  0
  113.6236  -13.9701   -7.2759 C   0  0  1  0  0  0  0  0  0  0  0  0
  114.0140  -12.8924   -8.2922 C   0  0  1  0  0  0  0  0  0  0  0  0
  115.4102  -12.3957   -7.9436 C   0  0  2  0  0  0  0  0  0  0  0  0
  115.6959  -12.6573   -6.4833 C   0  0  1  0  0  0  0  0  0  0  0  0
  115.6137  -14.1012   -6.1866 C   0  0  1  0  0  0  0  0  0  0  0  0
  115.3989  -14.3879   -4.7049 C   0  0  0  0  0  0  0  0  0  0  0  0
  109.0465  -19.3413   -3.4262 N   0  0  0  0  0  4  0  0  0  0  0  0
  107.7212  -13.1528   -8.1781 N   0  0  0  0  0  4  0  0  0  0  0  0
  111.7331  -13.7147  -10.3973 N   0  0  0  0  0  4  0  0  0  0  0  0
  115.4510  -10.9824   -8.2482 N   0  0  0  0  0  4  0  0  0  0  0  0
  108.6058  -16.9379   -5.7254 O   0  0  0  0  0  0  0  0  0  0  0  0
  107.3667  -16.5190   -8.4729 O   0  0  0  0  0  0  0  0  0  0  0  0
  107.1987  -19.8901   -7.5551 O   0  0  0  0  0  0  0  0  0  0  0  0
  105.8314  -17.3369   -5.6072 O   0  0  0  0  0  0  0  0  0  0  0  0
  109.6972  -16.1524   -7.5065 O   0  0  0  0  0  0  0  0  0  0  0  0
  109.8962  -12.7221   -6.7440 O   0  0  0  0  0  0  0  0  0  0  0  0
  112.5521  -14.7253   -7.6832 O   0  0  0  0  0  0  0  0  0  0  0  0
  114.7117  -14.7593   -6.9775 O   0  0  0  0  0  0  0  0  0  0  0  0
  114.0773  -13.4998   -9.5308 O   0  0  0  0  0  0  0  0  0  0  0  0
  116.9536  -12.1186   -6.1807 O   0  0  0  0  0  0  0  0  0  0  0  0
  114.4769  -15.3825   -4.5025 O   0  0  0  0  0  0  0  0  0  0  0  0
  1  2  1  0
  1 23  1  0
  1 27  1  6
  2  3  1  0
  2 24  1  1
  3  4  1  0
  3 25  1  1
  5  4  1  0
  4 26  1  6
  5  6  1  6
 23  5  1  0
  6 19  1  0
  8  7  1  0
  7 12  1  0
  7 21  1  6
  8  9  1  0
  8 29  1  1
  9 10  1  0
  9 28  1  6
 10 11  1  0
 10 27  1  6
 12 11  1  0
 11 20  1  1
 13 14  1  0
 13 29  1  6
 13 30  1  0
 14 15  1  0
 14 31  1  6
 15 16  1  0
 15 22  1  1
 16 17  1  0
 16 32  1  6
 17 18  1  1
 17 30  1  0
 18 33  1  0
M  CHG  4  19   1  20   1  21   1  22   1
M  END
$$$$
