
     RDKit          3D

 33 35  0  0  0  0  0  0  0  0999 V2000
  110.5473  -14.9416   -9.4671 C   0  0  2  0  0  0  0  0  0  0  0  0
  109.0491  -15.1842   -9.5496 C   0  0  1  0  0  0  0  0  0  0  0  0
  108.5289  -15.2785  -10.9426 C   0  0  2  0  0  0  0  0  0  0  0  0
  109.5323  -15.7388  -11.9582 C   0  0  1  0  0  0  0  0  0  0  0  0
  110.9326  -15.2972  -11.6873 C   0  0  1  0  0  0  0  0  0  0  0  0
  111.1711  -13.8590  -12.0467 C   0  0  0  0  0  0  0  0  0  0  0  0
  112.6584  -16.4057   -6.1929 C   0  0  1  0  0  0  0  0  0  0  0  0
  111.3181  -16.2564   -5.5740 C   0  0  1  0  0  0  0  0  0  0  0  0
  110.7115  -14.9685   -5.9675 C   0  0  2  0  0  0  0  0  0  0  0  0
  111.2321  -14.4332   -7.2796 C   0  0  1  0  0  0  0  0  0  0  0  0
  112.6658  -14.0437   -7.0631 C   0  0  2  0  0  0  0  0  0  0  0  0
  113.3980  -15.1177   -6.3091 C   0  0  0  0  0  0  0  0  0  0  0  0
  109.4244  -17.4061   -4.9111 C   0  0  1  0  0  0  0  0  0  0  0  0
  108.0850  -17.6966   -5.5955 C   0  0  1  0  0  0  0  0  0  0  0  0
  106.9697  -17.3713   -4.6117 C   0  0  2  0  0  0  0  0  0  0  0  0
  107.4981  -17.4426   -3.1981 C   0  0  1  0  0  0  0  0  0  0  0  0
  108.6018  -16.4813   -3.0052 C   0  0  1  0  0  0  0  0  0  0  0  0
  109.4856  -16.8291   -1.8127 C   0  0  0  0  0  0  0  0  0  0  0  0
  111.7276  -13.2173  -10.8440 N   0  0  0  0  0  4  0  0  0  0  0  0
  112.8144  -12.8231   -6.2980 N   0  0  0  0  0  4  0  0  0  0  0  0
  113.4504  -17.3033   -5.3710 N   0  0  0  0  0  4  0  0  0  0  0  0
  105.9102  -18.3309   -4.8321 N   0  0  0  0  0  4  0  0  0  0  0  0
  111.2520  -15.6456  -10.4033 O   0  0  0  0  0  0  0  0  0  0  0  0
  108.7263  -16.3854   -8.8757 O   0  0  0  0  0  0  0  0  0  0  0  0
  108.0002  -14.0680  -11.3931 O   0  0  0  0  0  0  0  0  0  0  0  0
  109.5311  -17.1368  -12.0421 O   0  0  0  0  0  0  0  0  0  0  0  0
  110.9385  -15.3003   -8.2209 O   0  0  0  0  0  0  0  0  0  0  0  0
  110.8745  -14.0028   -4.9497 O   0  0  0  0  0  0  0  0  0  0  0  0
  110.4710  -17.3299   -5.7960 O   0  0  0  0  0  0  0  0  0  0  0  0
  109.3295  -16.2667   -4.1439 O   0  0  0  0  0  0  0  0  0  0  0  0
  107.9736  -16.8294   -6.6644 O   0  0  0  0  0  0  0  0  0  0  0  0
  106.4298  -17.2154   -2.3202 O   0  0  0  0  0  0  0  0  0  0  0  0
  108.9517  -17.8395   -1.0549 O   0  0  0  0  0  0  0  0  0  0  0  0
  1  2  1  0
  1 23  1  0
  1 27  1  1
  2  3  1  0
  2 24  1  1
  3  4  1  0
  3 25  1  6
  5  4  1  0
  4 26  1  1
  5  6  1  1
 23  5  1  0
  6 19  1  0
  8  7  1  0
  7 12  1  0
  7 21  1  1
  8  9  1  0
  8 29  1  6
  9 10  1  0
  9 28  1  1
 10 11  1  0
 10 27  1  6
 12 11  1  0
 11 20  1  1
 13 14  1  0
 13 29  1  6
 13 30  1  0
 14 15  1  0
 14 31  1  6
 15 16  1  0
 15 22  1  1
 16 17  1  0
 16 32  1  1
 17 18  1  1
 17 30  1  0
 18 33  1  0
M  CHG  4  19   1  20   1  21   1  22   1
M  END
$$$$
