
     RDKit          3D

 33 35  0  0  0  0  0  0  0  0999 V2000
   99.2439  -16.7781   -6.0073 C   0  0  2  0  0  0  0  0  0  0  0  0
   99.7692  -17.6614   -7.1272 C   0  0  1  0  0  0  0  0  0  0  0  0
   99.0800  -17.4553   -8.4320 C   0  0  2  0  0  0  0  0  0  0  0  0
   98.4841  -16.0915   -8.6192 C   0  0  1  0  0  0  0  0  0  0  0  0
   97.9642  -15.4671   -7.3666 C   0  0  1  0  0  0  0  0  0  0  0  0
   96.6391  -16.0298   -6.9402 C   0  0  0  0  0  0  0  0  0  0  0  0
  102.1412  -15.3094   -3.4824 C   0  0  1  0  0  0  0  0  0  0  0  0
  102.3640  -16.7508   -3.2098 C   0  0  1  0  0  0  0  0  0  0  0  0
  101.0721  -17.4488   -3.0499 C   0  0  2  0  0  0  0  0  0  0  0  0
   99.9275  -16.7682   -3.7611 C   0  0  1  0  0  0  0  0  0  0  0  0
   99.6674  -15.4736   -3.0469 C   0  0  2  0  0  0  0  0  0  0  0  0
  100.9569  -14.7535   -2.7698 C   0  0  0  0  0  0  0  0  0  0  0  0
  104.2232  -18.0821   -3.5536 C   0  0  1  0  0  0  0  0  0  0  0  0
  105.4036  -18.2927   -4.5071 C   0  0  1  0  0  0  0  0  0  0  0  0
  106.2873  -19.3909   -3.9321 C   0  0  2  0  0  0  0  0  0  0  0  0
  106.0734  -19.4902   -2.4398 C   0  0  1  0  0  0  0  0  0  0  0  0
  104.6629  -19.8023   -2.1350 C   0  0  1  0  0  0  0  0  0  0  0  0
  104.2727  -19.4364   -0.7075 C   0  0  0  0  0  0  0  0  0  0  0  0
   95.8854  -14.9129   -6.3465 N   0  0  0  0  0  4  0  0  0  0  0  0
   99.0071  -15.6508   -1.7702 N   0  0  0  0  0  4  0  0  0  0  0  0
  103.3124  -14.5695   -3.0474 N   0  0  0  0  0  4  0  0  0  0  0  0
  107.6563  -19.0507   -4.2512 N   0  0  0  0  0  4  0  0  0  0  0  0
   98.9543  -15.5085   -6.4232 O   0  0  0  0  0  0  0  0  0  0  0  0
  101.1500  -17.4176   -7.3142 O   0  0  0  0  0  0  0  0  0  0  0  0
   98.0664  -18.3899   -8.6485 O   0  0  0  0  0  0  0  0  0  0  0  0
   99.4308  -15.2203   -9.1728 O   0  0  0  0  0  0  0  0  0  0  0  0
  100.1976  -16.7486   -5.0459 O   0  0  0  0  0  0  0  0  0  0  0  0
  100.7598  -17.6240   -1.6835 O   0  0  0  0  0  0  0  0  0  0  0  0
  103.1937  -17.3770   -4.1256 O   0  0  0  0  0  0  0  0  0  0  0  0
  103.7908  -19.2915   -3.0574 O   0  0  0  0  0  0  0  0  0  0  0  0
  104.8878  -18.7475   -5.7047 O   0  0  0  0  0  0  0  0  0  0  0  0
  106.9567  -20.4536   -1.9348 O   0  0  0  0  0  0  0  0  0  0  0  0
  105.0927  -18.4710   -0.1822 O   0  0  0  0  0  0  0  0  0  0  0  0
  1  2  1  0
  1 23  1  0
  1 27  1  1
  2  3  1  0
  2 24  1  6
  3  4  1  0
  3 25  1  1
  5  4  1  0
  4 26  1  1
  5  6  1  1
 23  5  1  0
  6 19  1  0
  8  7  1  0
  7 12  1  0
  7 21  1  1
  8  9  1  0
  8 29  1  6
  9 10  1  0
  9 28  1  1
 10 11  1  0
 10 27  1  6
 12 11  1  0
 11 20  1  1
 13 14  1  0
 13 29  1  6
 13 30  1  0
 14 15  1  0
 14 31  1  6
 15 16  1  0
 15 22  1  1
 16 17  1  0
 16 32  1  6
 17 18  1  1
 17 30  1  0
 18 33  1  0
M  CHG  4  19   1  20   1  21   1  22   1
M  END
$$$$
