
     RDKit          3D

 29 31  0  0  0  0  0  0  0  0999 V2000
  -11.9361   12.7128   20.3310 C   0  0  0  0  0  0  0  0  0  0  0  0
   -8.3592    7.3008   23.0251 C   0  0  0  0  0  0  0  0  0  0  0  0
   -6.8068    8.6686   24.3519 C   0  0  0  0  0  0  0  0  0  0  0  0
   -7.2836   11.4174   20.0507 C   0  0  2  0  0  0  0  0  0  0  0  0
   -7.0467   12.7683   19.5064 C   0  0  0  0  0  0  0  0  0  0  0  0
   -6.1103   11.0705   20.9451 C   0  0  0  0  0  0  0  0  0  0  0  0
  -12.7566   10.6437   22.4794 C   0  0  0  0  0  0  0  0  0  0  0  0
  -13.2260    9.6442   23.3437 C   0  0  0  0  0  0  0  0  0  0  0  0
  -14.5561    9.3495   23.4096 C   0  0  0  0  0  0  0  0  0  0  0  0
  -15.4088   10.0545   22.6121 C   0  0  0  0  0  0  0  0  0  0  0  0
  -14.9578   11.0182   21.7788 C   0  0  0  0  0  0  0  0  0  0  0  0
  -13.5989   11.3658   21.6677 C   0  0  0  0  0  0  0  0  0  0  0  0
   -7.8577   14.7582   18.2751 C   0  0  0  0  0  0  0  0  0  0  0  0
   -7.3421   10.4669   18.8516 C   0  0  0  0  0  0  0  0  0  0  0  0
  -11.7122   13.7758   19.5673 N   0  0  0  0  0  0  0  0  0  0  0  0
  -10.8840   11.9175   20.7051 N   0  0  0  0  0  0  0  0  0  0  0  0
   -9.6192   12.1719   20.3267 C   0  0  0  0  0  0  0  0  0  0  0  0
   -9.4249   13.2816   19.5360 C   0  0  0  0  0  0  0  0  0  0  0  0
  -10.4911   14.0772   19.1637 C   0  0  0  0  0  0  0  0  0  0  0  0
   -8.5430   11.3201   20.7371 N   0  0  0  0  0  0  0  0  0  0  0  0
   -8.8029   10.4139   21.8209 C   0  0  0  0  0  0  0  0  0  0  0  0
   -7.6182    9.5393   22.1507 C   0  0  0  0  0  0  0  0  0  0  0  0
   -7.9582    8.6999   23.3569 C   0  0  1  0  0  0  0  0  0  0  0  0
   -8.1179   13.5972   19.1105 N   0  0  0  0  0  0  0  0  0  0  0  0
   -5.8673   13.1772   19.3979 O   0  0  0  0  0  0  0  0  0  0  0  0
  -15.0119    8.3642   24.2626 O   0  0  0  0  0  0  0  0  0  0  0  0
  -13.2196   12.3757   20.7708 N   0  0  0  0  0  0  0  0  0  0  0  0
  -16.7366    9.7613   22.6780 F   0  0  0  0  0  0  0  0  0  0  0  0
  -12.3228    8.9691   24.1207 F   0  0  0  0  0  0  0  0  0  0  0  0
  1 15  2  0
 16  1  1  0
  1 27  1  0
 23  2  1  6
 23  3  1  0
  4  5  1  0
  4  6  1  1
  4 14  1  0
 20  4  1  0
  5 24  1  0
  5 25  2  0
  7  8  2  0
 12  7  1  0
  8  9  1  0
  8 29  1  0
 10  9  2  0
  9 26  1  0
 11 10  1  0
 10 28  1  0
 12 11  2  0
 27 12  1  0
 24 13  1  0
 19 15  1  0
 17 16  2  0
 17 18  1  0
 20 17  1  0
 18 19  2  0
 18 24  1  0
 21 20  1  0
 22 21  1  0
 22 23  1  0
M  END
$$$$
