
     RDKit          3D

 29 31  0  0  0  0  0  0  0  0999 V2000
  -11.8221   12.8058   20.0594 C   0  0  0  0  0  0  0  0  0  0  0  0
   -9.7874    7.5483   22.8127 C   0  0  0  0  0  0  0  0  0  0  0  0
   -7.5679    8.0083   23.7633 C   0  0  0  0  0  0  0  0  0  0  0  0
   -7.1390   11.5939   20.0943 C   0  0  2  0  0  0  0  0  0  0  0  0
   -6.9101   12.8664   19.3833 C   0  0  0  0  0  0  0  0  0  0  0  0
   -5.9895   11.3954   21.0620 C   0  0  0  0  0  0  0  0  0  0  0  0
  -12.6702   10.9099   22.3475 C   0  0  0  0  0  0  0  0  0  0  0  0
  -13.1524    9.9978   23.2973 C   0  0  0  0  0  0  0  0  0  0  0  0
  -14.4876    9.7385   23.3979 C   0  0  0  0  0  0  0  0  0  0  0  0
  -15.3327   10.3912   22.5496 C   0  0  0  0  0  0  0  0  0  0  0  0
  -14.8695   11.2706   21.6339 C   0  0  0  0  0  0  0  0  0  0  0  0
  -13.5048   11.5782   21.4835 C   0  0  0  0  0  0  0  0  0  0  0  0
   -7.7178   14.6571   17.8752 C   0  0  0  0  0  0  0  0  0  0  0  0
   -7.1395   10.4925   19.0306 C   0  0  0  0  0  0  0  0  0  0  0  0
  -11.5934   13.7639   19.1688 N   0  0  0  0  0  0  0  0  0  0  0  0
  -10.7680   12.0916   20.5674 N   0  0  0  0  0  0  0  0  0  0  0  0
   -9.4965   12.3234   20.1971 C   0  0  0  0  0  0  0  0  0  0  0  0
   -9.2973   13.3234   19.2725 C   0  0  0  0  0  0  0  0  0  0  0  0
  -10.3656   14.0379   18.7660 C   0  0  0  0  0  0  0  0  0  0  0  0
   -8.4183   11.5585   20.7491 N   0  0  0  0  0  0  0  0  0  0  0  0
   -8.6965   10.7973   21.9351 C   0  0  0  0  0  0  0  0  0  0  0  0
   -8.3451    9.3369   21.7903 C   0  0  0  0  0  0  0  0  0  0  0  0
   -8.7660    8.6120   23.0443 C   0  0  1  0  0  0  0  0  0  0  0  0
   -7.9832   13.6106   18.8488 N   0  0  0  0  0  0  0  0  0  0  0  0
   -5.7358   13.2849   19.2574 O   0  0  0  0  0  0  0  0  0  0  0  0
  -14.9560    8.8394   24.3352 O   0  0  0  0  0  0  0  0  0  0  0  0
  -13.1128   12.4998   20.5009 N   0  0  0  0  0  0  0  0  0  0  0  0
  -16.6657   10.1334   22.6500 F   0  0  0  0  0  0  0  0  0  0  0  0
  -12.2563    9.3721   24.1223 F   0  0  0  0  0  0  0  0  0  0  0  0
  1 15  2  0
 16  1  1  0
  1 27  1  0
 23  2  1  6
 23  3  1  0
  4  5  1  0
  4  6  1  1
  4 14  1  0
 20  4  1  0
  5 24  1  0
  5 25  2  0
  7  8  2  0
 12  7  1  0
  8  9  1  0
  8 29  1  0
 10  9  2  0
  9 26  1  0
 11 10  1  0
 10 28  1  0
 12 11  2  0
 27 12  1  0
 24 13  1  0
 19 15  1  0
 17 16  2  0
 17 18  1  0
 20 17  1  0
 18 19  2  0
 18 24  1  0
 21 20  1  0
 22 21  1  0
 22 23  1  0
M  END
$$$$
