
     RDKit          3D

 29 31  0  0  0  0  0  0  0  0999 V2000
  -11.6029   12.7753   20.2271 C   0  0  0  0  0  0  0  0  0  0  0  0
   -9.2672    9.0588   23.6239 C   0  0  0  0  0  0  0  0  0  0  0  0
   -6.9736    8.4491   24.2632 C   0  0  0  0  0  0  0  0  0  0  0  0
   -6.9468   11.5226   19.8344 C   0  0  2  0  0  0  0  0  0  0  0  0
   -6.7079   12.9269   19.4494 C   0  0  0  0  0  0  0  0  0  0  0  0
   -5.7794   11.0766   20.6919 C   0  0  0  0  0  0  0  0  0  0  0  0
  -14.5465   11.1816   22.0047 C   0  0  0  0  0  0  0  0  0  0  0  0
  -14.8266   10.2382   23.0036 C   0  0  0  0  0  0  0  0  0  0  0  0
  -13.8185    9.5544   23.6173 C   0  0  0  0  0  0  0  0  0  0  0  0
  -12.5376    9.8170   23.2299 C   0  0  0  0  0  0  0  0  0  0  0  0
  -12.2662   10.7260   22.2672 C   0  0  0  0  0  0  0  0  0  0  0  0
  -13.2630   11.4611   21.5995 C   0  0  0  0  0  0  0  0  0  0  0  0
   -7.5128   15.0438   18.4471 C   0  0  0  0  0  0  0  0  0  0  0  0
   -6.9956   10.7150   18.5345 C   0  0  0  0  0  0  0  0  0  0  0  0
  -11.3749   13.9185   19.5913 N   0  0  0  0  0  0  0  0  0  0  0  0
  -10.5524   11.9430   20.5158 N   0  0  0  0  0  0  0  0  0  0  0  0
   -9.2853   12.2396   20.1779 C   0  0  0  0  0  0  0  0  0  0  0  0
   -9.0868   13.4323   19.5202 C   0  0  0  0  0  0  0  0  0  0  0  0
  -10.1514   14.2646   19.2334 C   0  0  0  0  0  0  0  0  0  0  0  0
   -8.2109   11.3471   20.4962 N   0  0  0  0  0  0  0  0  0  0  0  0
   -8.4772   10.3231   21.4678 C   0  0  0  0  0  0  0  0  0  0  0  0
   -7.3231   10.0980   22.4136 C   0  0  0  0  0  0  0  0  0  0  0  0
   -7.8625    9.5557   23.7136 C   0  0  1  0  0  0  0  0  0  0  0  0
   -7.7773   13.7950   19.1429 N   0  0  0  0  0  0  0  0  0  0  0  0
   -5.5283   13.3461   19.3967 O   0  0  0  0  0  0  0  0  0  0  0  0
  -14.1009    8.6267   24.6001 O   0  0  0  0  0  0  0  0  0  0  0  0
  -12.8890   12.3896   20.6165 N   0  0  0  0  0  0  0  0  0  0  0  0
  -11.5310    9.1343   23.8415 F   0  0  0  0  0  0  0  0  0  0  0  0
  -16.1323   10.0164   23.3514 F   0  0  0  0  0  0  0  0  0  0  0  0
  1 15  2  0
 16  1  1  0
  1 27  1  0
 23  2  1  6
 23  3  1  0
  4  5  1  0
  4  6  1  1
  4 14  1  0
 20  4  1  0
  5 24  1  0
  5 25  2  0
  7  8  2  0
 12  7  1  0
  8  9  1  0
  8 29  1  0
 10  9  2  0
  9 26  1  0
 11 10  1  0
 10 28  1  0
 12 11  2  0
 27 12  1  0
 24 13  1  0
 19 15  1  0
 17 16  2  0
 17 18  1  0
 20 17  1  0
 18 19  2  0
 18 24  1  0
 21 20  1  0
 22 21  1  0
 22 23  1  0
M  END
$$$$
