
     RDKit          3D

 29 31  0  0  0  0  0  0  0  0999 V2000
  -11.7205   12.6840   20.5282 C   0  0  0  0  0  0  0  0  0  0  0  0
   -6.8858    7.8276   23.8152 C   0  0  0  0  0  0  0  0  0  0  0  0
   -8.4821    9.3602   24.8850 C   0  0  0  0  0  0  0  0  0  0  0  0
   -7.1771   11.1645   19.8567 C   0  0  2  0  0  0  0  0  0  0  0  0
   -6.8748   12.5595   19.4829 C   0  0  0  0  0  0  0  0  0  0  0  0
   -5.9940   10.6324   20.6404 C   0  0  0  0  0  0  0  0  0  0  0  0
  -12.5474   10.6456   22.7016 C   0  0  0  0  0  0  0  0  0  0  0  0
  -13.0219    9.6656   23.5852 C   0  0  0  0  0  0  0  0  0  0  0  0
  -14.3565    9.3993   23.6775 C   0  0  0  0  0  0  0  0  0  0  0  0
  -15.2083   10.1130   22.8870 C   0  0  0  0  0  0  0  0  0  0  0  0
  -14.7523   11.0579   22.0350 C   0  0  0  0  0  0  0  0  0  0  0  0
  -13.3888   11.3759   21.8965 C   0  0  0  0  0  0  0  0  0  0  0  0
   -7.6033   14.7404   18.5628 C   0  0  0  0  0  0  0  0  0  0  0  0
   -7.3453   10.3876   18.5479 C   0  0  0  0  0  0  0  0  0  0  0  0
  -11.4586   13.8243   19.9001 N   0  0  0  0  0  0  0  0  0  0  0  0
  -10.7083   11.7850   20.7439 N   0  0  0  0  0  0  0  0  0  0  0  0
   -9.4458   12.0123   20.3414 C   0  0  0  0  0  0  0  0  0  0  0  0
   -9.2114   13.2042   19.6941 C   0  0  0  0  0  0  0  0  0  0  0  0
  -10.2376   14.1041   19.4809 C   0  0  0  0  0  0  0  0  0  0  0  0
   -8.4117   11.0511   20.5845 N   0  0  0  0  0  0  0  0  0  0  0  0
   -8.6864   10.0254   21.5519 C   0  0  0  0  0  0  0  0  0  0  0  0
   -7.6111    9.9089   22.6042 C   0  0  0  0  0  0  0  0  0  0  0  0
   -7.9865    8.8026   23.5582 C   0  0  1  0  0  0  0  0  0  0  0  0
   -7.9047   13.4958   19.2509 N   0  0  0  0  0  0  0  0  0  0  0  0
   -5.6766   12.9087   19.3720 O   0  0  0  0  0  0  0  0  0  0  0  0
  -14.8174    8.4331   24.5495 O   0  0  0  0  0  0  0  0  0  0  0  0
  -13.0046   12.3678   20.9817 N   0  0  0  0  0  0  0  0  0  0  0  0
  -16.5405    9.8482   22.9791 F   0  0  0  0  0  0  0  0  0  0  0  0
  -12.1193    8.9805   24.3541 F   0  0  0  0  0  0  0  0  0  0  0  0
  1 15  2  0
 16  1  1  0
  1 27  1  0
 23  2  1  1
 23  3  1  0
  4  5  1  0
  4  6  1  1
  4 14  1  0
 20  4  1  0
  5 24  1  0
  5 25  2  0
  7  8  2  0
 12  7  1  0
  8  9  1  0
  8 29  1  0
 10  9  2  0
  9 26  1  0
 11 10  1  0
 10 28  1  0
 12 11  2  0
 27 12  1  0
 24 13  1  0
 19 15  1  0
 17 16  2  0
 17 18  1  0
 20 17  1  0
 18 19  2  0
 18 24  1  0
 21 20  1  0
 22 21  1  0
 22 23  1  0
M  END
$$$$
