
     RDKit          3D

 29 31  0  0  0  0  0  0  0  0999 V2000
  -11.7201   12.7407   20.1233 C   0  0  0  0  0  0  0  0  0  0  0  0
   -9.7947    8.3328   23.6651 C   0  0  0  0  0  0  0  0  0  0  0  0
   -7.5999    7.3426   23.1717 C   0  0  0  0  0  0  0  0  0  0  0  0
   -7.0155   11.6181   20.2122 C   0  0  2  0  0  0  0  0  0  0  0  0
   -6.8026   12.8953   19.5047 C   0  0  0  0  0  0  0  0  0  0  0  0
   -5.8738   11.4407   21.1931 C   0  0  0  0  0  0  0  0  0  0  0  0
  -14.6872   11.1397   21.8562 C   0  0  0  0  0  0  0  0  0  0  0  0
  -14.9805   10.1839   22.8394 C   0  0  0  0  0  0  0  0  0  0  0  0
  -13.9789    9.5341   23.4990 C   0  0  0  0  0  0  0  0  0  0  0  0
  -12.6913    9.8430   23.1728 C   0  0  0  0  0  0  0  0  0  0  0  0
  -12.4071   10.7639   22.2253 C   0  0  0  0  0  0  0  0  0  0  0  0
  -13.3966   11.4655   21.5125 C   0  0  0  0  0  0  0  0  0  0  0  0
   -7.6267   14.6717   17.9884 C   0  0  0  0  0  0  0  0  0  0  0  0
   -6.9826   10.5178   19.1478 C   0  0  0  0  0  0  0  0  0  0  0  0
  -11.4994   13.7036   19.2361 N   0  0  0  0  0  0  0  0  0  0  0  0
  -10.6586   12.0462   20.6431 N   0  0  0  0  0  0  0  0  0  0  0  0
   -9.3875   12.3025   20.2878 C   0  0  0  0  0  0  0  0  0  0  0  0
   -9.1966   13.3069   19.3663 C   0  0  0  0  0  0  0  0  0  0  0  0
  -10.2724   14.0014   18.8478 C   0  0  0  0  0  0  0  0  0  0  0  0
   -8.3014   11.5578   20.8519 N   0  0  0  0  0  0  0  0  0  0  0  0
   -8.5789   10.7904   22.0341 C   0  0  0  0  0  0  0  0  0  0  0  0
   -8.3759    9.3087   21.8323 C   0  0  0  0  0  0  0  0  0  0  0  0
   -8.4150    8.6281   23.1778 C   0  0  1  0  0  0  0  0  0  0  0  0
   -7.8834   13.6195   18.9582 N   0  0  0  0  0  0  0  0  0  0  0  0
   -5.6351   13.3362   19.3928 O   0  0  0  0  0  0  0  0  0  0  0  0
  -14.2744    8.5940   24.4660 O   0  0  0  0  0  0  0  0  0  0  0  0
  -13.0098   12.4097   20.5496 N   0  0  0  0  0  0  0  0  0  0  0  0
  -11.6912    9.1942   23.8303 F   0  0  0  0  0  0  0  0  0  0  0  0
  -16.2925    9.9152   23.1248 F   0  0  0  0  0  0  0  0  0  0  0  0
  1 15  2  0
 16  1  1  0
  1 27  1  0
 23  2  1  6
 23  3  1  0
  4  5  1  0
  4  6  1  1
  4 14  1  0
 20  4  1  0
  5 24  1  0
  5 25  2  0
  7  8  2  0
 12  7  1  0
  8  9  1  0
  8 29  1  0
 10  9  2  0
  9 26  1  0
 11 10  1  0
 10 28  1  0
 12 11  2  0
 27 12  1  0
 24 13  1  0
 19 15  1  0
 17 16  2  0
 17 18  1  0
 20 17  1  0
 18 19  2  0
 18 24  1  0
 21 20  1  0
 22 21  1  0
 22 23  1  0
M  END
$$$$
