
     RDKit          3D

 29 31  0  0  0  0  0  0  0  0999 V2000
  -10.9829   13.1771   19.7616 C   0  0  0  0  0  0  0  0  0  0  0  0
   -5.7231   10.3420   22.1551 C   0  0  0  0  0  0  0  0  0  0  0  0
   -6.8910    8.3561   23.0116 C   0  0  0  0  0  0  0  0  0  0  0  0
  -11.3992    9.5048   22.8829 C   0  0  2  0  0  0  0  0  0  0  0  0
  -12.8551    9.6315   22.6792 C   0  0  0  0  0  0  0  0  0  0  0  0
  -11.0789    8.0281   23.0008 C   0  0  0  0  0  0  0  0  0  0  0  0
   -7.9034   14.8280   18.3050 C   0  0  0  0  0  0  0  0  0  0  0  0
   -6.5129   14.6606   18.2355 C   0  0  0  0  0  0  0  0  0  0  0  0
   -5.9185   13.5511   18.7607 C   0  0  0  0  0  0  0  0  0  0  0  0
   -6.7161   12.6159   19.3516 C   0  0  0  0  0  0  0  0  0  0  0  0
   -8.0564   12.7760   19.4194 C   0  0  0  0  0  0  0  0  0  0  0  0
   -8.7251   13.8979   18.8961 C   0  0  0  0  0  0  0  0  0  0  0  0
  -14.8311   11.0160   22.1205 C   0  0  0  0  0  0  0  0  0  0  0  0
  -11.0762   10.2289   24.1928 C   0  0  0  0  0  0  0  0  0  0  0  0
  -12.2817   13.4373   19.8556 N   0  0  0  0  0  0  0  0  0  0  0  0
  -10.4628   12.0931   20.4202 N   0  0  0  0  0  0  0  0  0  0  0  0
  -11.2221   11.2720   21.1665 C   0  0  0  0  0  0  0  0  0  0  0  0
  -12.5632   11.5723   21.2411 C   0  0  0  0  0  0  0  0  0  0  0  0
  -13.0786   12.6669   20.5742 C   0  0  0  0  0  0  0  0  0  0  0  0
  -10.6456   10.1471   21.8406 N   0  0  0  0  0  0  0  0  0  0  0  0
   -9.3347    9.7351   21.4221 C   0  0  0  0  0  0  0  0  0  0  0  0
   -8.2354   10.3310   22.2669 C   0  0  0  0  0  0  0  0  0  0  0  0
   -6.9735    9.5336   22.0504 C   0  0  1  0  0  0  0  0  0  0  0  0
  -13.4073   10.7438   22.0092 N   0  0  0  0  0  0  0  0  0  0  0  0
  -13.6064    8.7279   23.1138 O   0  0  0  0  0  0  0  0  0  0  0  0
   -4.5488   13.3922   18.6891 O   0  0  0  0  0  0  0  0  0  0  0  0
  -10.1215   13.9779   19.0058 N   0  0  0  0  0  0  0  0  0  0  0  0
   -6.1233   11.5085   19.8767 F   0  0  0  0  0  0  0  0  0  0  0  0
   -5.7628   15.6331   17.6299 F   0  0  0  0  0  0  0  0  0  0  0  0
  1 15  2  0
 16  1  1  0
  1 27  1  0
 23  2  1  1
 23  3  1  0
  4  5  1  0
  4  6  1  1
  4 14  1  0
 20  4  1  0
  5 24  1  0
  5 25  2  0
  7  8  2  0
 12  7  1  0
  8  9  1  0
  8 29  1  0
 10  9  2  0
  9 26  1  0
 11 10  1  0
 10 28  1  0
 12 11  2  0
 27 12  1  0
 24 13  1  0
 19 15  1  0
 17 16  2  0
 17 18  1  0
 20 17  1  0
 18 19  2  0
 18 24  1  0
 21 20  1  0
 22 21  1  0
 22 23  1  0
M  END
$$$$
