
     RDKit          3D

 29 31  0  0  0  0  0  0  0  0999 V2000
  -11.7787   12.8253   20.1955 C   0  0  0  0  0  0  0  0  0  0  0  0
   -8.8810    7.0235   22.9008 C   0  0  0  0  0  0  0  0  0  0  0  0
   -8.1889    8.7658   24.4903 C   0  0  0  0  0  0  0  0  0  0  0  0
   -7.1307   11.4900   20.3154 C   0  0  2  0  0  0  0  0  0  0  0  0
   -6.8531   12.7653   19.6270 C   0  0  0  0  0  0  0  0  0  0  0  0
   -6.0084   11.2487   21.3049 C   0  0  0  0  0  0  0  0  0  0  0  0
  -14.8286   11.2392   21.7821 C   0  0  0  0  0  0  0  0  0  0  0  0
  -15.1759   10.2954   22.7593 C   0  0  0  0  0  0  0  0  0  0  0  0
  -14.2166    9.7042   23.5278 C   0  0  0  0  0  0  0  0  0  0  0  0
  -12.9171   10.0594   23.3160 C   0  0  0  0  0  0  0  0  0  0  0  0
  -12.5809   10.9688   22.3745 C   0  0  0  0  0  0  0  0  0  0  0  0
  -13.5252   11.6110   21.5526 C   0  0  0  0  0  0  0  0  0  0  0  0
   -7.5805   14.5964   18.1264 C   0  0  0  0  0  0  0  0  0  0  0  0
   -7.1364   10.4031   19.2369 C   0  0  0  0  0  0  0  0  0  0  0  0
  -11.5056   13.7886   19.3233 N   0  0  0  0  0  0  0  0  0  0  0  0
  -10.7550   12.0769   20.7164 N   0  0  0  0  0  0  0  0  0  0  0  0
   -9.4700   12.2800   20.3770 C   0  0  0  0  0  0  0  0  0  0  0  0
   -9.2246   13.2865   19.4707 C   0  0  0  0  0  0  0  0  0  0  0  0
  -10.2625   14.0355   18.9510 C   0  0  0  0  0  0  0  0  0  0  0  0
   -8.4246   11.4798   20.9417 N   0  0  0  0  0  0  0  0  0  0  0  0
   -8.7487   10.7107   22.1108 C   0  0  0  0  0  0  0  0  0  0  0  0
   -8.2273    9.2961   22.0450 C   0  0  0  0  0  0  0  0  0  0  0  0
   -8.8637    8.4946   23.1531 C   0  0  1  0  0  0  0  0  0  0  0  0
   -7.8944   13.5445   19.0796 N   0  0  0  0  0  0  0  0  0  0  0  0
   -5.6658   13.1543   19.5324 O   0  0  0  0  0  0  0  0  0  0  0  0
  -14.5651    8.7756   24.4883 O   0  0  0  0  0  0  0  0  0  0  0  0
  -13.0864   12.5476   20.6047 N   0  0  0  0  0  0  0  0  0  0  0  0
  -11.9590    9.4692   24.0823 F   0  0  0  0  0  0  0  0  0  0  0  0
  -16.4974    9.9783   22.9272 F   0  0  0  0  0  0  0  0  0  0  0  0
  1 15  2  0
 16  1  1  0
  1 27  1  0
 23  2  1  6
 23  3  1  0
  4  5  1  0
  4  6  1  1
  4 14  1  0
 20  4  1  0
  5 24  1  0
  5 25  2  0
  7  8  2  0
 12  7  1  0
  8  9  1  0
  8 29  1  0
 10  9  2  0
  9 26  1  0
 11 10  1  0
 10 28  1  0
 12 11  2  0
 27 12  1  0
 24 13  1  0
 19 15  1  0
 17 16  2  0
 17 18  1  0
 20 17  1  0
 18 19  2  0
 18 24  1  0
 21 20  1  0
 22 21  1  0
 22 23  1  0
M  END
$$$$
