
     RDKit          3D

 29 31  0  0  0  0  0  0  0  0999 V2000
  -11.9693   12.7642   20.1757 C   0  0  0  0  0  0  0  0  0  0  0  0
   -9.2698    7.4218   22.4318 C   0  0  0  0  0  0  0  0  0  0  0  0
   -7.7603    8.1110   24.2450 C   0  0  0  0  0  0  0  0  0  0  0  0
   -7.2639   11.6492   20.3100 C   0  0  2  0  0  0  0  0  0  0  0  0
   -7.0464   12.9260   19.6031 C   0  0  0  0  0  0  0  0  0  0  0  0
   -6.1312   11.4748   21.3018 C   0  0  0  0  0  0  0  0  0  0  0  0
  -14.9411   11.3175   22.0305 C   0  0  0  0  0  0  0  0  0  0  0  0
  -15.2393   10.4119   23.0587 C   0  0  0  0  0  0  0  0  0  0  0  0
  -14.2465    9.7129   23.6800 C   0  0  0  0  0  0  0  0  0  0  0  0
  -12.9626    9.9227   23.2709 C   0  0  0  0  0  0  0  0  0  0  0  0
  -12.6737   10.7951   22.2800 C   0  0  0  0  0  0  0  0  0  0  0  0
  -13.6542   11.5436   21.6032 C   0  0  0  0  0  0  0  0  0  0  0  0
   -7.8590   14.6992   18.0770 C   0  0  0  0  0  0  0  0  0  0  0  0
   -7.2193   10.5478   19.2473 C   0  0  0  0  0  0  0  0  0  0  0  0
  -11.7417   13.7265   19.2894 N   0  0  0  0  0  0  0  0  0  0  0  0
  -10.9116   12.0720   20.7062 N   0  0  0  0  0  0  0  0  0  0  0  0
   -9.6376   12.3299   20.3626 C   0  0  0  0  0  0  0  0  0  0  0  0
   -9.4397   13.3336   19.4418 C   0  0  0  0  0  0  0  0  0  0  0  0
  -10.5116   14.0257   18.9123 C   0  0  0  0  0  0  0  0  0  0  0  0
   -8.5557   11.5876   20.9377 N   0  0  0  0  0  0  0  0  0  0  0  0
   -8.8431   10.8211   22.1182 C   0  0  0  0  0  0  0  0  0  0  0  0
   -7.9932    9.5793   22.2321 C   0  0  0  0  0  0  0  0  0  0  0  0
   -8.6897    8.5992   23.1428 C   0  0  1  0  0  0  0  0  0  0  0  0
   -8.1232   13.6477   19.0456 N   0  0  0  0  0  0  0  0  0  0  0  0
   -5.8786   13.3686   19.5016 O   0  0  0  0  0  0  0  0  0  0  0  0
  -14.5468    8.8226   24.6917 O   0  0  0  0  0  0  0  0  0  0  0  0
  -13.2624   12.4317   20.5902 N   0  0  0  0  0  0  0  0  0  0  0  0
  -11.9712    9.2247   23.8901 F   0  0  0  0  0  0  0  0  0  0  0  0
  -16.5472   10.2427   23.4273 F   0  0  0  0  0  0  0  0  0  0  0  0
  1 15  2  0
 16  1  1  0
  1 27  1  0
 23  2  1  6
 23  3  1  0
  4  5  1  0
  4  6  1  1
  4 14  1  0
 20  4  1  0
  5 24  1  0
  5 25  2  0
  7  8  2  0
 12  7  1  0
  8  9  1  0
  8 29  1  0
 10  9  2  0
  9 26  1  0
 11 10  1  0
 10 28  1  0
 12 11  2  0
 27 12  1  0
 24 13  1  0
 19 15  1  0
 17 16  2  0
 17 18  1  0
 20 17  1  0
 18 19  2  0
 18 24  1  0
 21 20  1  0
 22 21  1  0
 22 23  1  0
M  END
$$$$
