
     RDKit          3D

 29 31  0  0  0  0  0  0  0  0999 V2000
  -11.7071   12.6334   20.1985 C   0  0  0  0  0  0  0  0  0  0  0  0
   -6.5552    8.4279   23.6972 C   0  0  0  0  0  0  0  0  0  0  0  0
   -8.8684    8.9454   24.3473 C   0  0  0  0  0  0  0  0  0  0  0  0
   -7.1164   11.2761   19.5018 C   0  0  2  0  0  0  0  0  0  0  0  0
   -6.8545   12.6921   19.1799 C   0  0  0  0  0  0  0  0  0  0  0  0
   -5.9219   10.7521   20.2734 C   0  0  0  0  0  0  0  0  0  0  0  0
  -12.4785   10.5924   22.3898 C   0  0  0  0  0  0  0  0  0  0  0  0
  -12.9232    9.6051   23.2808 C   0  0  0  0  0  0  0  0  0  0  0  0
  -14.2450    9.2766   23.3523 C   0  0  0  0  0  0  0  0  0  0  0  0
  -15.1142    9.9357   22.5337 C   0  0  0  0  0  0  0  0  0  0  0  0
  -14.6871   10.8875   21.6746 C   0  0  0  0  0  0  0  0  0  0  0  0
  -13.3378   11.2684   21.5565 C   0  0  0  0  0  0  0  0  0  0  0  0
   -7.6438   14.8818   18.3337 C   0  0  0  0  0  0  0  0  0  0  0  0
   -7.2542   10.5420   18.1651 C   0  0  0  0  0  0  0  0  0  0  0  0
  -11.4766   13.8029   19.6132 N   0  0  0  0  0  0  0  0  0  0  0  0
  -10.6693   11.7581   20.3884 N   0  0  0  0  0  0  0  0  0  0  0  0
   -9.4122   12.0375   20.0022 C   0  0  0  0  0  0  0  0  0  0  0  0
   -9.2106   13.2583   19.3993 C   0  0  0  0  0  0  0  0  0  0  0  0
  -10.2625   14.1341   19.2119 C   0  0  0  0  0  0  0  0  0  0  0  0
   -8.3508   11.0997   20.2173 N   0  0  0  0  0  0  0  0  0  0  0  0
   -8.5994   10.0322   21.1457 C   0  0  0  0  0  0  0  0  0  0  0  0
   -7.8347   10.1885   22.4372 C   0  0  0  0  0  0  0  0  0  0  0  0
   -7.8833    8.8815   23.1887 C   0  0  1  0  0  0  0  0  0  0  0  0
   -7.9110   13.6047   18.9751 N   0  0  0  0  0  0  0  0  0  0  0  0
   -5.6669   13.0809   19.0891 O   0  0  0  0  0  0  0  0  0  0  0  0
  -14.6765    8.3036   24.2318 O   0  0  0  0  0  0  0  0  0  0  0  0
  -12.9834   12.2628   20.6323 N   0  0  0  0  0  0  0  0  0  0  0  0
  -16.4338    9.6088   22.6052 F   0  0  0  0  0  0  0  0  0  0  0  0
  -12.0043    8.9767   24.0782 F   0  0  0  0  0  0  0  0  0  0  0  0
  1 15  2  0
 16  1  1  0
  1 27  1  0
 23  2  1  1
 23  3  1  0
  4  5  1  0
  4  6  1  1
  4 14  1  0
 20  4  1  0
  5 24  1  0
  5 25  2  0
  7  8  2  0
 12  7  1  0
  8  9  1  0
  8 29  1  0
 10  9  2  0
  9 26  1  0
 11 10  1  0
 10 28  1  0
 12 11  2  0
 27 12  1  0
 24 13  1  0
 19 15  1  0
 17 16  2  0
 17 18  1  0
 20 17  1  0
 18 19  2  0
 18 24  1  0
 21 20  1  0
 22 21  1  0
 22 23  1  0
M  END
$$$$
