
     RDKit          3D

 29 31  0  0  0  0  0  0  0  0999 V2000
  -11.8702   12.6145   20.3249 C   0  0  0  0  0  0  0  0  0  0  0  0
   -6.8934    7.5533   23.5579 C   0  0  0  0  0  0  0  0  0  0  0  0
   -8.3424    9.1295   24.7652 C   0  0  0  0  0  0  0  0  0  0  0  0
   -7.3005   11.0817   19.9114 C   0  0  2  0  0  0  0  0  0  0  0  0
   -7.0048   12.4283   19.3855 C   0  0  0  0  0  0  0  0  0  0  0  0
   -6.1271   10.6568   20.7715 C   0  0  0  0  0  0  0  0  0  0  0  0
  -12.7467   10.6379   22.5429 C   0  0  0  0  0  0  0  0  0  0  0  0
  -13.2432    9.6649   23.4223 C   0  0  0  0  0  0  0  0  0  0  0  0
  -14.5783    9.3908   23.4748 C   0  0  0  0  0  0  0  0  0  0  0  0
  -15.4088   10.0896   22.6492 C   0  0  0  0  0  0  0  0  0  0  0  0
  -14.9317   11.0277   21.8013 C   0  0  0  0  0  0  0  0  0  0  0  0
  -13.5665   11.3533   21.7027 C   0  0  0  0  0  0  0  0  0  0  0  0
   -7.7371   14.4809   18.2089 C   0  0  0  0  0  0  0  0  0  0  0  0
   -7.4366   10.1583   18.6976 C   0  0  0  0  0  0  0  0  0  0  0  0
  -11.6077   13.6784   19.5749 N   0  0  0  0  0  0  0  0  0  0  0  0
  -10.8535   11.7580   20.6599 N   0  0  0  0  0  0  0  0  0  0  0  0
   -9.5859   11.9527   20.2561 C   0  0  0  0  0  0  0  0  0  0  0  0
   -9.3511   13.0653   19.4806 C   0  0  0  0  0  0  0  0  0  0  0  0
  -10.3819   13.9227   19.1478 C   0  0  0  0  0  0  0  0  0  0  0  0
   -8.5473   11.0379   20.6257 N   0  0  0  0  0  0  0  0  0  0  0  0
   -8.8301   10.1264   21.6994 C   0  0  0  0  0  0  0  0  0  0  0  0
   -7.5910    9.6990   22.4472 C   0  0  0  0  0  0  0  0  0  0  0  0
   -7.9592    8.5859   23.3961 C   0  0  1  0  0  0  0  0  0  0  0  0
   -8.0393   13.3197   19.0298 N   0  0  0  0  0  0  0  0  0  0  0  0
   -5.8082   12.7766   19.2562 O   0  0  0  0  0  0  0  0  0  0  0  0
  -15.0609    8.4317   24.3429 O   0  0  0  0  0  0  0  0  0  0  0  0
  -13.1594   12.3371   20.7891 N   0  0  0  0  0  0  0  0  0  0  0  0
  -16.7416    9.8170   22.7017 F   0  0  0  0  0  0  0  0  0  0  0  0
  -12.3615    8.9949   24.2276 F   0  0  0  0  0  0  0  0  0  0  0  0
  1 15  2  0
 16  1  1  0
  1 27  1  0
 23  2  1  1
 23  3  1  0
  4  5  1  0
  4  6  1  1
  4 14  1  0
 20  4  1  0
  5 24  1  0
  5 25  2  0
  7  8  2  0
 12  7  1  0
  8  9  1  0
  8 29  1  0
 10  9  2  0
  9 26  1  0
 11 10  1  0
 10 28  1  0
 12 11  2  0
 27 12  1  0
 24 13  1  0
 19 15  1  0
 17 16  2  0
 17 18  1  0
 20 17  1  0
 18 19  2  0
 18 24  1  0
 21 20  1  0
 22 21  1  0
 22 23  1  0
M  END
$$$$
