
     RDKit          3D

 29 31  0  0  0  0  0  0  0  0999 V2000
  -11.7768   12.8489   20.1030 C   0  0  0  0  0  0  0  0  0  0  0  0
   -7.8783    7.4093   23.2387 C   0  0  0  0  0  0  0  0  0  0  0  0
   -9.3984    9.2665   23.7692 C   0  0  0  0  0  0  0  0  0  0  0  0
   -7.0954   11.6389   19.9504 C   0  0  2  0  0  0  0  0  0  0  0  0
   -6.8868   12.9392   19.2849 C   0  0  0  0  0  0  0  0  0  0  0  0
   -5.9180   11.4021   20.8748 C   0  0  0  0  0  0  0  0  0  0  0  0
  -12.5864   10.7739   22.2580 C   0  0  0  0  0  0  0  0  0  0  0  0
  -13.0512    9.7533   23.0998 C   0  0  0  0  0  0  0  0  0  0  0  0
  -14.3769    9.4357   23.1419 C   0  0  0  0  0  0  0  0  0  0  0  0
  -15.2299   10.1389   22.3433 C   0  0  0  0  0  0  0  0  0  0  0  0
  -14.7833   11.1229   21.5315 C   0  0  0  0  0  0  0  0  0  0  0  0
  -13.4291   11.4946   21.4454 C   0  0  0  0  0  0  0  0  0  0  0  0
   -7.7376   14.7890   17.8749 C   0  0  0  0  0  0  0  0  0  0  0  0
   -7.1282   10.5814   18.8435 C   0  0  0  0  0  0  0  0  0  0  0  0
  -11.5738   13.8422   19.2454 N   0  0  0  0  0  0  0  0  0  0  0  0
  -10.7086   12.1153   20.5503 N   0  0  0  0  0  0  0  0  0  0  0  0
   -9.4484   12.3625   20.1522 C   0  0  0  0  0  0  0  0  0  0  0  0
   -9.2760   13.3991   19.2633 C   0  0  0  0  0  0  0  0  0  0  0  0
  -10.3583   14.1329   18.8179 C   0  0  0  0  0  0  0  0  0  0  0  0
   -8.3549   11.5764   20.6408 N   0  0  0  0  0  0  0  0  0  0  0  0
   -8.5984   10.7678   21.8028 C   0  0  0  0  0  0  0  0  0  0  0  0
   -8.0262    9.3769   21.6795 C   0  0  0  0  0  0  0  0  0  0  0  0
   -8.7453    8.4711   22.6477 C   0  0  1  0  0  0  0  0  0  0  0  0
   -7.9748   13.7039   18.8129 N   0  0  0  0  0  0  0  0  0  0  0  0
   -5.7165   13.3630   19.1413 O   0  0  0  0  0  0  0  0  0  0  0  0
  -14.8282    8.4297   23.9730 O   0  0  0  0  0  0  0  0  0  0  0  0
  -13.0540   12.5246   20.5698 N   0  0  0  0  0  0  0  0  0  0  0  0
  -16.5534    9.8229   22.3854 F   0  0  0  0  0  0  0  0  0  0  0  0
  -12.1479    9.0812   23.8793 F   0  0  0  0  0  0  0  0  0  0  0  0
  1 15  2  0
 16  1  1  0
  1 27  1  0
 23  2  1  1
 23  3  1  0
  4  5  1  0
  4  6  1  1
  4 14  1  0
 20  4  1  0
  5 24  1  0
  5 25  2  0
  7  8  2  0
 12  7  1  0
  8  9  1  0
  8 29  1  0
 10  9  2  0
  9 26  1  0
 11 10  1  0
 10 28  1  0
 12 11  2  0
 27 12  1  0
 24 13  1  0
 19 15  1  0
 17 16  2  0
 17 18  1  0
 20 17  1  0
 18 19  2  0
 18 24  1  0
 21 20  1  0
 22 21  1  0
 22 23  1  0
M  END
$$$$
