
     RDKit          3D

 29 31  0  0  0  0  0  0  0  0999 V2000
  -11.7241   12.8709   20.2860 C   0  0  0  0  0  0  0  0  0  0  0  0
   -6.9333    7.9891   23.3220 C   0  0  0  0  0  0  0  0  0  0  0  0
   -7.8926    9.5847   24.9267 C   0  0  0  0  0  0  0  0  0  0  0  0
   -7.1617   11.3670   19.7155 C   0  0  2  0  0  0  0  0  0  0  0  0
   -6.8743   12.7409   19.2605 C   0  0  0  0  0  0  0  0  0  0  0  0
   -5.9749   10.8959   20.5319 C   0  0  0  0  0  0  0  0  0  0  0  0
  -12.5385   10.8766   22.5030 C   0  0  0  0  0  0  0  0  0  0  0  0
  -13.0089    9.9208   23.4149 C   0  0  0  0  0  0  0  0  0  0  0  0
  -14.3445    9.6715   23.5347 C   0  0  0  0  0  0  0  0  0  0  0  0
  -15.2017   10.3778   22.7434 C   0  0  0  0  0  0  0  0  0  0  0  0
  -14.7497   11.2994   21.8642 C   0  0  0  0  0  0  0  0  0  0  0  0
  -13.3853   11.5992   21.6964 C   0  0  0  0  0  0  0  0  0  0  0  0
   -7.6249   14.8551   18.2116 C   0  0  0  0  0  0  0  0  0  0  0  0
   -7.3172   10.5123   18.4546 C   0  0  0  0  0  0  0  0  0  0  0  0
  -11.4734   13.9750   19.5922 N   0  0  0  0  0  0  0  0  0  0  0  0
  -10.7023   11.9980   20.5568 N   0  0  0  0  0  0  0  0  0  0  0  0
   -9.4413   12.2157   20.1443 C   0  0  0  0  0  0  0  0  0  0  0  0
   -9.2187   13.3698   19.4281 C   0  0  0  0  0  0  0  0  0  0  0  0
  -10.2545   14.2437   19.1598 C   0  0  0  0  0  0  0  0  0  0  0  0
   -8.3970   11.2826   20.4460 N   0  0  0  0  0  0  0  0  0  0  0  0
   -8.6627   10.3127   21.4718 C   0  0  0  0  0  0  0  0  0  0  0  0
   -7.5996   10.2853   22.5423 C   0  0  0  0  0  0  0  0  0  0  0  0
   -7.8810    9.1325   23.4733 C   0  0  1  0  0  0  0  0  0  0  0  0
   -7.9141   13.6499   18.9714 N   0  0  0  0  0  0  0  0  0  0  0  0
   -5.6798   13.0967   19.1318 O   0  0  0  0  0  0  0  0  0  0  0  0
  -14.8012    8.7291   24.4346 O   0  0  0  0  0  0  0  0  0  0  0  0
  -13.0058   12.5672   20.7545 N   0  0  0  0  0  0  0  0  0  0  0  0
  -16.5349   10.1300   22.8631 F   0  0  0  0  0  0  0  0  0  0  0  0
  -12.1011    9.2421   24.1832 F   0  0  0  0  0  0  0  0  0  0  0  0
  1 15  2  0
 16  1  1  0
  1 27  1  0
 23  2  1  1
 23  3  1  0
  4  5  1  0
  4  6  1  1
  4 14  1  0
 20  4  1  0
  5 24  1  0
  5 25  2  0
  7  8  2  0
 12  7  1  0
  8  9  1  0
  8 29  1  0
 10  9  2  0
  9 26  1  0
 11 10  1  0
 10 28  1  0
 12 11  2  0
 27 12  1  0
 24 13  1  0
 19 15  1  0
 17 16  2  0
 17 18  1  0
 20 17  1  0
 18 19  2  0
 18 24  1  0
 21 20  1  0
 22 21  1  0
 22 23  1  0
M  END
$$$$
