
     RDKit          3D

 29 31  0  0  0  0  0  0  0  0999 V2000
  -11.8168   12.8573   20.1080 C   0  0  0  0  0  0  0  0  0  0  0  0
   -8.7825    7.8471   22.9438 C   0  0  0  0  0  0  0  0  0  0  0  0
   -7.2863    9.0202   24.5016 C   0  0  0  0  0  0  0  0  0  0  0  0
   -7.2839   11.2728   19.5212 C   0  0  2  0  0  0  0  0  0  0  0  0
   -6.9580   12.6599   19.1378 C   0  0  0  0  0  0  0  0  0  0  0  0
   -6.1198   10.7338   20.3282 C   0  0  0  0  0  0  0  0  0  0  0  0
  -12.6928   10.8423   22.2771 C   0  0  0  0  0  0  0  0  0  0  0  0
  -13.1910    9.9040   23.1924 C   0  0  0  0  0  0  0  0  0  0  0  0
  -14.5344    9.7154   23.3340 C   0  0  0  0  0  0  0  0  0  0  0  0
  -15.3715   10.4647   22.5610 C   0  0  0  0  0  0  0  0  0  0  0  0
  -14.8928   11.3695   21.6785 C   0  0  0  0  0  0  0  0  0  0  0  0
  -13.5192   11.6074   21.4887 C   0  0  0  0  0  0  0  0  0  0  0  0
   -7.6441   14.8403   18.1846 C   0  0  0  0  0  0  0  0  0  0  0  0
   -7.4424   10.4846   18.2181 C   0  0  0  0  0  0  0  0  0  0  0  0
  -11.5308   13.9875   19.4724 N   0  0  0  0  0  0  0  0  0  0  0  0
  -10.8197   11.9477   20.3483 N   0  0  0  0  0  0  0  0  0  0  0  0
   -9.5485   12.1546   19.9627 C   0  0  0  0  0  0  0  0  0  0  0  0
   -9.2889   13.3366   19.3069 C   0  0  0  0  0  0  0  0  0  0  0  0
  -10.3001   14.2473   19.0689 C   0  0  0  0  0  0  0  0  0  0  0  0
   -8.5307   11.1829   20.2313 N   0  0  0  0  0  0  0  0  0  0  0  0
   -8.8332   10.1709   21.2048 C   0  0  0  0  0  0  0  0  0  0  0  0
   -7.7766   10.0531   22.2757 C   0  0  0  0  0  0  0  0  0  0  0  0
   -8.3135    9.1917   23.3915 C   0  0  1  0  0  0  0  0  0  0  0  0
   -7.9720   13.6068   18.8807 N   0  0  0  0  0  0  0  0  0  0  0  0
   -5.7538   12.9925   19.0416 O   0  0  0  0  0  0  0  0  0  0  0  0
  -15.0185    8.7899   24.2371 O   0  0  0  0  0  0  0  0  0  0  0  0
  -13.1116   12.5623   20.5451 N   0  0  0  0  0  0  0  0  0  0  0  0
  -16.7126   10.2775   22.7024 F   0  0  0  0  0  0  0  0  0  0  0  0
  -12.3023    9.1801   23.9416 F   0  0  0  0  0  0  0  0  0  0  0  0
  1 15  2  0
 16  1  1  0
  1 27  1  0
 23  2  1  6
 23  3  1  0
  4  5  1  0
  4  6  1  1
  4 14  1  0
 20  4  1  0
  5 24  1  0
  5 25  2  0
  7  8  2  0
 12  7  1  0
  8  9  1  0
  8 29  1  0
 10  9  2  0
  9 26  1  0
 11 10  1  0
 10 28  1  0
 12 11  2  0
 27 12  1  0
 24 13  1  0
 19 15  1  0
 17 16  2  0
 17 18  1  0
 20 17  1  0
 18 19  2  0
 18 24  1  0
 21 20  1  0
 22 21  1  0
 22 23  1  0
M  END
$$$$
