
     RDKit          3D

 29 31  0  0  0  0  0  0  0  0999 V2000
  -11.8056   12.4832   20.1688 C   0  0  0  0  0  0  0  0  0  0  0  0
   -9.2868    8.2960   24.1608 C   0  0  0  0  0  0  0  0  0  0  0  0
   -7.6860    7.0349   22.7867 C   0  0  0  0  0  0  0  0  0  0  0  0
   -7.0825   11.4415   20.2701 C   0  0  2  0  0  0  0  0  0  0  0  0
   -6.8921   12.7095   19.5399 C   0  0  0  0  0  0  0  0  0  0  0  0
   -5.9368   11.3006   21.2522 C   0  0  0  0  0  0  0  0  0  0  0  0
  -14.7427   10.8821   21.9522 C   0  0  0  0  0  0  0  0  0  0  0  0
  -15.0184    9.9410   22.9546 C   0  0  0  0  0  0  0  0  0  0  0  0
  -14.0051    9.3064   23.6110 C   0  0  0  0  0  0  0  0  0  0  0  0
  -12.7234    9.6157   23.2626 C   0  0  0  0  0  0  0  0  0  0  0  0
  -12.4562   10.5224   22.2966 C   0  0  0  0  0  0  0  0  0  0  0  0
  -13.4584   11.2080   21.5860 C   0  0  0  0  0  0  0  0  0  0  0  0
   -7.7478   14.4448   17.9939 C   0  0  0  0  0  0  0  0  0  0  0  0
   -7.0325   10.3234   19.2252 C   0  0  0  0  0  0  0  0  0  0  0  0
  -11.6021   13.4340   19.2644 N   0  0  0  0  0  0  0  0  0  0  0  0
  -10.7318   11.8159   20.6991 N   0  0  0  0  0  0  0  0  0  0  0  0
   -9.4656   12.0872   20.3374 C   0  0  0  0  0  0  0  0  0  0  0  0
   -9.2929   13.0783   19.3981 C   0  0  0  0  0  0  0  0  0  0  0  0
  -10.3808   13.7454   18.8691 C   0  0  0  0  0  0  0  0  0  0  0  0
   -8.3665   11.3709   20.9128 N   0  0  0  0  0  0  0  0  0  0  0  0
   -8.6296   10.6199   22.1087 C   0  0  0  0  0  0  0  0  0  0  0  0
   -8.6928    9.1320   21.8646 C   0  0  0  0  0  0  0  0  0  0  0  0
   -8.2327    8.4180   23.1110 C   0  0  1  0  0  0  0  0  0  0  0  0
   -7.9856   13.4057   18.9825 N   0  0  0  0  0  0  0  0  0  0  0  0
   -5.7323   13.1679   19.4185 O   0  0  0  0  0  0  0  0  0  0  0  0
  -14.2832    8.3808   24.5969 O   0  0  0  0  0  0  0  0  0  0  0  0
  -13.0890   12.1382   20.6028 N   0  0  0  0  0  0  0  0  0  0  0  0
  -11.7115    8.9821   23.9169 F   0  0  0  0  0  0  0  0  0  0  0  0
  -16.3253    9.6712   23.2620 F   0  0  0  0  0  0  0  0  0  0  0  0
  1 15  2  0
 16  1  1  0
  1 27  1  0
 23  2  1  1
 23  3  1  0
  4  5  1  0
  4  6  1  1
  4 14  1  0
 20  4  1  0
  5 24  1  0
  5 25  2  0
  7  8  2  0
 12  7  1  0
  8  9  1  0
  8 29  1  0
 10  9  2  0
  9 26  1  0
 11 10  1  0
 10 28  1  0
 12 11  2  0
 27 12  1  0
 24 13  1  0
 19 15  1  0
 17 16  2  0
 17 18  1  0
 20 17  1  0
 18 19  2  0
 18 24  1  0
 21 20  1  0
 22 21  1  0
 22 23  1  0
M  END
$$$$
