
     RDKit          3D

 29 31  0  0  0  0  0  0  0  0999 V2000
  -11.9568   12.7903   20.3954 C   0  0  0  0  0  0  0  0  0  0  0  0
  -10.1921    7.7196   23.3630 C   0  0  0  0  0  0  0  0  0  0  0  0
   -7.8453    8.0553   24.0118 C   0  0  0  0  0  0  0  0  0  0  0  0
   -7.2726   11.5823   20.3634 C   0  0  2  0  0  0  0  0  0  0  0  0
   -7.0633   12.8241   19.5944 C   0  0  0  0  0  0  0  0  0  0  0  0
   -6.0990   11.4247   21.3093 C   0  0  0  0  0  0  0  0  0  0  0  0
  -12.7678   10.9273   22.7345 C   0  0  0  0  0  0  0  0  0  0  0  0
  -13.2320    9.9923   23.6707 C   0  0  0  0  0  0  0  0  0  0  0  0
  -14.5569    9.6755   23.7397 C   0  0  0  0  0  0  0  0  0  0  0  0
  -15.4095   10.2940   22.8735 C   0  0  0  0  0  0  0  0  0  0  0  0
  -14.9635   11.1954   21.9707 C   0  0  0  0  0  0  0  0  0  0  0  0
  -13.6102   11.5619   21.8527 C   0  0  0  0  0  0  0  0  0  0  0  0
   -7.9110   14.5501   18.0336 C   0  0  0  0  0  0  0  0  0  0  0  0
   -7.2983   10.4375   19.3469 C   0  0  0  0  0  0  0  0  0  0  0  0
  -11.7518   13.7104   19.4602 N   0  0  0  0  0  0  0  0  0  0  0  0
  -10.8893   12.0982   20.9061 N   0  0  0  0  0  0  0  0  0  0  0  0
   -9.6278   12.3148   20.4947 C   0  0  0  0  0  0  0  0  0  0  0  0
   -9.4532   13.2754   19.5246 C   0  0  0  0  0  0  0  0  0  0  0  0
  -10.5348   13.9678   19.0156 C   0  0  0  0  0  0  0  0  0  0  0  0
   -8.5351   11.5739   21.0509 N   0  0  0  0  0  0  0  0  0  0  0  0
   -8.7825   10.8627   22.2743 C   0  0  0  0  0  0  0  0  0  0  0  0
   -8.7759    9.3646   22.0931 C   0  0  0  0  0  0  0  0  0  0  0  0
   -9.0822    8.7162   23.4200 C   0  0  1  0  0  0  0  0  0  0  0  0
   -8.1505   13.5451   19.0564 N   0  0  0  0  0  0  0  0  0  0  0  0
   -5.8932   13.2373   19.4217 O   0  0  0  0  0  0  0  0  0  0  0  0
  -15.0076    8.7541   24.6640 O   0  0  0  0  0  0  0  0  0  0  0  0
  -13.2356   12.5026   20.8816 N   0  0  0  0  0  0  0  0  0  0  0  0
  -16.7321    9.9788   22.9424 F   0  0  0  0  0  0  0  0  0  0  0  0
  -12.3292    9.4030   24.5150 F   0  0  0  0  0  0  0  0  0  0  0  0
  1 15  2  0
 16  1  1  0
  1 27  1  0
 23  2  1  6
 23  3  1  0
  4  5  1  0
  4  6  1  1
  4 14  1  0
 20  4  1  0
  5 24  1  0
  5 25  2  0
  7  8  2  0
 12  7  1  0
  8  9  1  0
  8 29  1  0
 10  9  2  0
  9 26  1  0
 11 10  1  0
 10 28  1  0
 12 11  2  0
 27 12  1  0
 24 13  1  0
 19 15  1  0
 17 16  2  0
 17 18  1  0
 20 17  1  0
 18 19  2  0
 18 24  1  0
 21 20  1  0
 22 21  1  0
 22 23  1  0
M  END
$$$$
