
     RDKit          3D

 29 31  0  0  0  0  0  0  0  0999 V2000
  -11.4605   12.7587   20.2401 C   0  0  0  0  0  0  0  0  0  0  0  0
   -9.2649    7.0696   22.8328 C   0  0  0  0  0  0  0  0  0  0  0  0
   -7.8166    8.6416   24.0463 C   0  0  0  0  0  0  0  0  0  0  0  0
   -6.8169   11.4145   20.0624 C   0  0  2  0  0  0  0  0  0  0  0  0
   -6.5842   12.6818   19.3433 C   0  0  0  0  0  0  0  0  0  0  0  0
   -5.6311   11.1811   20.9770 C   0  0  0  0  0  0  0  0  0  0  0  0
  -12.2876   10.8983   22.5837 C   0  0  0  0  0  0  0  0  0  0  0  0
  -12.7584    9.9465   23.4995 C   0  0  0  0  0  0  0  0  0  0  0  0
  -14.0800    9.6111   23.5370 C   0  0  0  0  0  0  0  0  0  0  0  0
  -14.9227   10.2278   22.6599 C   0  0  0  0  0  0  0  0  0  0  0  0
  -14.4703   11.1455   21.7768 C   0  0  0  0  0  0  0  0  0  0  0  0
  -13.1200   11.5315   21.6915 C   0  0  0  0  0  0  0  0  0  0  0  0
   -7.4078   14.4984   17.8753 C   0  0  0  0  0  0  0  0  0  0  0  0
   -6.8966   10.3162   18.9984 C   0  0  0  0  0  0  0  0  0  0  0  0
  -11.2450   13.7121   19.3412 N   0  0  0  0  0  0  0  0  0  0  0  0
  -10.4053   12.0136   20.6991 N   0  0  0  0  0  0  0  0  0  0  0  0
   -9.1457   12.2103   20.2722 C   0  0  0  0  0  0  0  0  0  0  0  0
   -8.9600   13.2065   19.3408 C   0  0  0  0  0  0  0  0  0  0  0  0
  -10.0294   13.9522   18.8838 C   0  0  0  0  0  0  0  0  0  0  0  0
   -8.0659   11.4137   20.7741 N   0  0  0  0  0  0  0  0  0  0  0  0
   -8.3119   10.6577   21.9705 C   0  0  0  0  0  0  0  0  0  0  0  0
   -8.5083    9.1855   21.7037 C   0  0  0  0  0  0  0  0  0  0  0  0
   -8.9067    8.5099   22.9921 C   0  0  1  0  0  0  0  0  0  0  0  0
   -7.6587   13.4574   18.8586 N   0  0  0  0  0  0  0  0  0  0  0  0
   -5.4054   13.0671   19.1651 O   0  0  0  0  0  0  0  0  0  0  0  0
  -14.5372    8.6731   24.4412 O   0  0  0  0  0  0  0  0  0  0  0  0
  -12.7382   12.4882   20.7390 N   0  0  0  0  0  0  0  0  0  0  0  0
  -16.2419    9.8940   22.6974 F   0  0  0  0  0  0  0  0  0  0  0  0
  -11.8654    9.3598   24.3559 F   0  0  0  0  0  0  0  0  0  0  0  0
  1 15  2  0
 16  1  1  0
  1 27  1  0
 23  2  1  6
 23  3  1  0
  4  5  1  0
  4  6  1  1
  4 14  1  0
 20  4  1  0
  5 24  1  0
  5 25  2  0
  7  8  2  0
 12  7  1  0
  8  9  1  0
  8 29  1  0
 10  9  2  0
  9 26  1  0
 11 10  1  0
 10 28  1  0
 12 11  2  0
 27 12  1  0
 24 13  1  0
 19 15  1  0
 17 16  2  0
 17 18  1  0
 20 17  1  0
 18 19  2  0
 18 24  1  0
 21 20  1  0
 22 21  1  0
 22 23  1  0
M  END
$$$$
