
     RDKit          3D

 29 31  0  0  0  0  0  0  0  0999 V2000
  -11.7753   12.4658   20.0774 C   0  0  0  0  0  0  0  0  0  0  0  0
   -7.7864    6.7489   22.5972 C   0  0  0  0  0  0  0  0  0  0  0  0
   -7.6625    8.5316   24.2848 C   0  0  0  0  0  0  0  0  0  0  0  0
   -7.0798   11.3023   20.0472 C   0  0  2  0  0  0  0  0  0  0  0  0
   -6.8543   12.6522   19.4956 C   0  0  0  0  0  0  0  0  0  0  0  0
   -5.9433   11.0015   21.0037 C   0  0  0  0  0  0  0  0  0  0  0  0
  -14.4109   11.6261   22.4855 C   0  0  0  0  0  0  0  0  0  0  0  0
  -14.7420   10.7643   23.5410 C   0  0  0  0  0  0  0  0  0  0  0  0
  -14.1296    9.5522   23.6679 C   0  0  0  0  0  0  0  0  0  0  0  0
  -13.1906    9.2085   22.7406 C   0  0  0  0  0  0  0  0  0  0  0  0
  -12.8706   10.0381   21.7227 C   0  0  0  0  0  0  0  0  0  0  0  0
  -13.4677   11.2989   21.5404 C   0  0  0  0  0  0  0  0  0  0  0  0
   -7.6588   14.6013   18.1965 C   0  0  0  0  0  0  0  0  0  0  0  0
   -7.0513   10.3347   18.8608 C   0  0  0  0  0  0  0  0  0  0  0  0
  -11.5436   13.5246   19.3103 N   0  0  0  0  0  0  0  0  0  0  0  0
  -10.7211   11.7063   20.5149 N   0  0  0  0  0  0  0  0  0  0  0  0
   -9.4467   11.9923   20.1960 C   0  0  0  0  0  0  0  0  0  0  0  0
   -9.2445   13.0966   19.3997 C   0  0  0  0  0  0  0  0  0  0  0  0
  -10.3129   13.8560   18.9633 C   0  0  0  0  0  0  0  0  0  0  0  0
   -8.3686   11.1776   20.6716 N   0  0  0  0  0  0  0  0  0  0  0  0
   -8.6566   10.2787   21.7544 C   0  0  0  0  0  0  0  0  0  0  0  0
   -7.6606    9.1500   21.8601 C   0  0  0  0  0  0  0  0  0  0  0  0
   -8.1533    8.1657   22.8912 C   0  0  1  0  0  0  0  0  0  0  0  0
   -7.9274   13.4444   19.0350 N   0  0  0  0  0  0  0  0  0  0  0  0
   -5.6830   13.0937   19.4398 O   0  0  0  0  0  0  0  0  0  0  0  0
  -14.4601    8.7082   24.7095 O   0  0  0  0  0  0  0  0  0  0  0  0
  -13.0691   12.0974   20.4579 N   0  0  0  0  0  0  0  0  0  0  0  0
  -12.5795    7.9985   22.8663 F   0  0  0  0  0  0  0  0  0  0  0  0
  -15.6925   11.1633   24.4423 F   0  0  0  0  0  0  0  0  0  0  0  0
  1 15  2  0
 16  1  1  0
  1 27  1  0
 23  2  1  6
 23  3  1  0
  4  5  1  0
  4  6  1  1
  4 14  1  0
 20  4  1  0
  5 24  1  0
  5 25  2  0
  7  8  2  0
 12  7  1  0
  8  9  1  0
  8 29  1  0
 10  9  2  0
  9 26  1  0
 11 10  1  0
 10 28  1  0
 12 11  2  0
 27 12  1  0
 24 13  1  0
 19 15  1  0
 17 16  2  0
 17 18  1  0
 20 17  1  0
 18 19  2  0
 18 24  1  0
 21 20  1  0
 22 21  1  0
 22 23  1  0
M  END
$$$$
