
     RDKit          3D

 29 31  0  0  0  0  0  0  0  0999 V2000
  -11.9297   12.8125   20.0182 C   0  0  0  0  0  0  0  0  0  0  0  0
   -9.4347    7.6526   23.1175 C   0  0  0  0  0  0  0  0  0  0  0  0
   -7.0410    7.9710   23.5758 C   0  0  0  0  0  0  0  0  0  0  0  0
   -7.2684   11.5186   20.0093 C   0  0  2  0  0  0  0  0  0  0  0  0
   -7.0137   12.8233   19.3689 C   0  0  0  0  0  0  0  0  0  0  0  0
   -6.1279   11.2484   20.9702 C   0  0  0  0  0  0  0  0  0  0  0  0
  -14.9360   11.1299   21.5871 C   0  0  0  0  0  0  0  0  0  0  0  0
  -15.2580   10.1520   22.5391 C   0  0  0  0  0  0  0  0  0  0  0  0
  -14.2821    9.5587   23.2847 C   0  0  0  0  0  0  0  0  0  0  0  0
  -12.9913    9.9457   23.0752 C   0  0  0  0  0  0  0  0  0  0  0  0
  -12.6795   10.8879   22.1578 C   0  0  0  0  0  0  0  0  0  0  0  0
  -13.6418   11.5341   21.3603 C   0  0  0  0  0  0  0  0  0  0  0  0
   -7.7822   14.7064   17.9556 C   0  0  0  0  0  0  0  0  0  0  0  0
   -7.2820   10.4762   18.8879 C   0  0  0  0  0  0  0  0  0  0  0  0
  -11.6797   13.8128   19.1815 N   0  0  0  0  0  0  0  0  0  0  0  0
  -10.8909   12.0536   20.4918 N   0  0  0  0  0  0  0  0  0  0  0  0
   -9.6135   12.2827   20.1404 C   0  0  0  0  0  0  0  0  0  0  0  0
   -9.3921   13.3273   19.2719 C   0  0  0  0  0  0  0  0  0  0  0  0
  -10.4451   14.0866   18.7997 C   0  0  0  0  0  0  0  0  0  0  0  0
   -8.5517   11.4705   20.6554 N   0  0  0  0  0  0  0  0  0  0  0  0
   -8.8496   10.6516   21.7974 C   0  0  0  0  0  0  0  0  0  0  0  0
   -8.1255    9.3279   21.7744 C   0  0  0  0  0  0  0  0  0  0  0  0
   -8.3214    8.6469   23.1060 C   0  0  1  0  0  0  0  0  0  0  0  0
   -8.0709   13.6139   18.8703 N   0  0  0  0  0  0  0  0  0  0  0  0
   -5.8318   13.2274   19.2711 O   0  0  0  0  0  0  0  0  0  0  0  0
  -14.6058    8.5965   24.2205 O   0  0  0  0  0  0  0  0  0  0  0  0
  -13.2279   12.5057   20.4367 N   0  0  0  0  0  0  0  0  0  0  0  0
  -12.0167    9.3533   23.8185 F   0  0  0  0  0  0  0  0  0  0  0  0
  -16.5718    9.8040   22.7060 F   0  0  0  0  0  0  0  0  0  0  0  0
  1 15  2  0
 16  1  1  0
  1 27  1  0
 23  2  1  6
 23  3  1  0
  4  5  1  0
  4  6  1  1
  4 14  1  0
 20  4  1  0
  5 24  1  0
  5 25  2  0
  7  8  2  0
 12  7  1  0
  8  9  1  0
  8 29  1  0
 10  9  2  0
  9 26  1  0
 11 10  1  0
 10 28  1  0
 12 11  2  0
 27 12  1  0
 24 13  1  0
 19 15  1  0
 17 16  2  0
 17 18  1  0
 20 17  1  0
 18 19  2  0
 18 24  1  0
 21 20  1  0
 22 21  1  0
 22 23  1  0
M  END
$$$$
