
     RDKit          3D

 29 31  0  0  0  0  0  0  0  0999 V2000
  -10.8643   13.5098   20.2471 C   0  0  0  0  0  0  0  0  0  0  0  0
   -5.6228   10.4602   22.7104 C   0  0  0  0  0  0  0  0  0  0  0  0
   -6.4610    8.4979   21.4905 C   0  0  0  0  0  0  0  0  0  0  0  0
  -11.2152    9.4999   22.9304 C   0  0  2  0  0  0  0  0  0  0  0  0
  -12.6743    9.6355   22.7575 C   0  0  0  0  0  0  0  0  0  0  0  0
  -10.8815    8.0226   22.8746 C   0  0  0  0  0  0  0  0  0  0  0  0
   -7.7506   13.5435   20.0883 C   0  0  0  0  0  0  0  0  0  0  0  0
   -6.3819   13.4962   19.7869 C   0  0  0  0  0  0  0  0  0  0  0  0
   -5.8768   14.1989   18.7327 C   0  0  0  0  0  0  0  0  0  0  0  0
   -6.7412   14.9445   17.9865 C   0  0  0  0  0  0  0  0  0  0  0  0
   -8.0606   14.9909   18.2758 C   0  0  0  0  0  0  0  0  0  0  0  0
   -8.6386   14.2884   19.3490 C   0  0  0  0  0  0  0  0  0  0  0  0
  -14.6678   11.0563   22.3818 C   0  0  0  0  0  0  0  0  0  0  0  0
  -10.8834   10.0720   24.3113 C   0  0  0  0  0  0  0  0  0  0  0  0
  -12.1640   13.7452   20.3838 N   0  0  0  0  0  0  0  0  0  0  0  0
  -10.3279   12.3624   20.7715 N   0  0  0  0  0  0  0  0  0  0  0  0
  -11.0720   11.4540   21.4264 C   0  0  0  0  0  0  0  0  0  0  0  0
  -12.4146   11.7311   21.5488 C   0  0  0  0  0  0  0  0  0  0  0  0
  -12.9464   12.8900   21.0173 C   0  0  0  0  0  0  0  0  0  0  0  0
  -10.4788   10.2646   21.9610 N   0  0  0  0  0  0  0  0  0  0  0  0
   -9.1693    9.9157   21.4845 C   0  0  0  0  0  0  0  0  0  0  0  0
   -8.1013   10.0699   22.5394 C   0  0  0  0  0  0  0  0  0  0  0  0
   -6.7502    9.9402   21.8816 C   0  0  1  0  0  0  0  0  0  0  0  0
  -13.2432   10.8121   22.2254 N   0  0  0  0  0  0  0  0  0  0  0  0
  -13.4133    8.6809   23.0933 O   0  0  0  0  0  0  0  0  0  0  0  0
   -4.5282   14.1481   18.4412 O   0  0  0  0  0  0  0  0  0  0  0  0
  -10.0180   14.4001   19.5795 N   0  0  0  0  0  0  0  0  0  0  0  0
   -6.2378   15.6456   16.9338 F   0  0  0  0  0  0  0  0  0  0  0  0
   -5.5618   12.7304   20.5717 F   0  0  0  0  0  0  0  0  0  0  0  0
  1 15  2  0
 16  1  1  0
  1 27  1  0
 23  2  1  1
 23  3  1  0
  4  5  1  0
  4  6  1  1
  4 14  1  0
 20  4  1  0
  5 24  1  0
  5 25  2  0
  7  8  2  0
 12  7  1  0
  8  9  1  0
  8 29  1  0
 10  9  2  0
  9 26  1  0
 11 10  1  0
 10 28  1  0
 12 11  2  0
 27 12  1  0
 24 13  1  0
 19 15  1  0
 17 16  2  0
 17 18  1  0
 20 17  1  0
 18 19  2  0
 18 24  1  0
 21 20  1  0
 22 21  1  0
 22 23  1  0
M  END
$$$$
