
     RDKit          3D

 10 10  0  0  0  0  0  0  0  0999 V2000
  -17.7986   -2.9668  -27.7118 C   0  0  0  0  0  0  0  0  0  0  0  0
  -16.1459   -3.4604  -29.4806 C   0  0  0  0  0  0  0  0  0  0  0  0
  -16.9936   -6.5770  -25.9567 C   0  0  0  0  0  0  0  0  0  0  0  0
  -14.9599   -6.8824  -27.1920 C   0  0  0  0  0  0  0  0  0  0  0  0
  -17.1451   -5.3222  -26.5131 C   0  0  0  0  0  0  0  0  0  0  0  0
  -15.1436   -5.6223  -27.7291 C   0  0  0  0  0  0  0  0  0  0  0  0
  -15.9049   -7.3587  -26.2926 C   0  0  0  0  0  0  0  0  0  0  0  0
  -16.2210   -4.8283  -27.4074 C   0  0  0  0  0  0  0  0  0  0  0  0
  -16.3986   -3.4891  -27.9903 C   0  0  2  0  0  0  0  0  0  0  0  0
  -15.7192   -8.6349  -25.7484 O   0  0  0  0  0  0  0  0  0  0  0  0
  9  1  1  6
  9  2  1  0
  5  3  2  0
  3  7  1  0
  6  4  1  0
  4  7  2  0
  8  5  1  0
  8  6  2  0
  7 10  1  0
  8  9  1  0
M  END
$$$$
