
     RDKit          3D

 10 10  0  0  0  0  0  0  0  0999 V2000
  -16.7214   -4.1807  -25.9649 C   0  0  0  0  0  0  0  0  0  0  0  0
  -16.1559   -6.5013  -26.5878 C   0  0  0  0  0  0  0  0  0  0  0  0
  -15.0646   -4.0551  -30.0283 C   0  0  0  0  0  0  0  0  0  0  0  0
  -17.4015   -4.0898  -30.5160 C   0  0  0  0  0  0  0  0  0  0  0  0
  -15.3258   -4.5234  -28.7547 C   0  0  0  0  0  0  0  0  0  0  0  0
  -17.6315   -4.5592  -29.2317 C   0  0  0  0  0  0  0  0  0  0  0  0
  -16.0875   -3.8385  -30.9047 C   0  0  0  0  0  0  0  0  0  0  0  0
  -16.6188   -4.7873  -28.3249 C   0  0  0  0  0  0  0  0  0  0  0  0
  -16.9462   -5.2819  -26.9929 C   0  0  2  0  0  0  0  0  0  0  0  0
  -15.8595   -3.3687  -32.1909 O   0  0  0  0  0  0  0  0  0  0  0  0
  1  9  1  6
  2  9  1  6
  5  3  2  0
  3  7  1  0
  6  4  1  0
  4  7  2  0
  8  5  1  0
  8  6  2  0
  7 10  1  0
  9  8  1  6
M  END
$$$$
