
     RDKit          3D

 10 10  0  0  0  0  0  0  0  0999 V2000
  -16.7499   -3.5455  -29.5329 C   0  0  0  0  0  0  0  0  0  0  0  0
  -16.1808   -2.4078  -27.4151 C   0  0  0  0  0  0  0  0  0  0  0  0
  -16.7329   -6.8138  -26.1126 C   0  0  0  0  0  0  0  0  0  0  0  0
  -14.7097   -6.6033  -27.3843 C   0  0  0  0  0  0  0  0  0  0  0  0
  -17.1756   -5.6055  -26.6134 C   0  0  0  0  0  0  0  0  0  0  0  0
  -15.1845   -5.3978  -27.8652 C   0  0  0  0  0  0  0  0  0  0  0  0
  -15.5034   -7.3153  -26.4944 C   0  0  0  0  0  0  0  0  0  0  0  0
  -16.4061   -4.8812  -27.4971 C   0  0  0  0  0  0  0  0  0  0  0  0
  -16.8938   -3.5955  -28.0206 C   0  0  2  0  0  0  0  0  0  0  0  0
  -15.0229   -8.5364  -26.0071 O   0  0  0  0  0  0  0  0  0  0  0  0
  9  1  1  6
  9  2  1  0
  5  3  2  0
  3  7  1  0
  6  4  1  0
  4  7  2  0
  8  5  1  0
  8  6  2  0
  7 10  1  0
  8  9  1  0
M  END
$$$$
