
     RDKit          3D

 10 10  0  0  0  0  0  0  0  0999 V2000
  -15.6263   -3.1560  -28.4481 C   0  0  0  0  0  0  0  0  0  0  0  0
  -17.7153   -3.0116  -27.1410 C   0  0  0  0  0  0  0  0  0  0  0  0
  -16.8380   -6.9600  -25.7909 C   0  0  0  0  0  0  0  0  0  0  0  0
  -14.9296   -7.0112  -27.2245 C   0  0  0  0  0  0  0  0  0  0  0  0
  -17.2353   -5.7680  -26.3663 C   0  0  0  0  0  0  0  0  0  0  0  0
  -15.3543   -5.8148  -27.7821 C   0  0  0  0  0  0  0  0  0  0  0  0
  -15.6979   -7.5802  -26.2112 C   0  0  0  0  0  0  0  0  0  0  0  0
  -16.5011   -5.1654  -27.3782 C   0  0  0  0  0  0  0  0  0  0  0  0
  -16.8775   -3.9098  -28.0168 C   0  0  2  0  0  0  0  0  0  0  0  0
  -15.2708   -8.7779  -25.6545 O   0  0  0  0  0  0  0  0  0  0  0  0
  1  9  1  6
  2  9  1  6
  5  3  2  0
  3  7  1  0
  6  4  1  0
  4  7  2  0
  8  5  1  0
  8  6  2  0
  7 10  1  0
  9  8  1  1
M  END
$$$$
