
     RDKit          3D

 10 10  0  0  0  0  0  0  0  0999 V2000
  -16.9345   -2.3771  -26.9037 C   0  0  0  0  0  0  0  0  0  0  0  0
  -17.2223   -3.3191  -29.1693 C   0  0  0  0  0  0  0  0  0  0  0  0
  -14.9063   -6.6895  -27.1269 C   0  0  0  0  0  0  0  0  0  0  0  0
  -17.0018   -6.4870  -25.9766 C   0  0  0  0  0  0  0  0  0  0  0  0
  -15.0726   -5.4249  -27.6560 C   0  0  0  0  0  0  0  0  0  0  0  0
  -17.1350   -5.2251  -26.5241 C   0  0  0  0  0  0  0  0  0  0  0  0
  -15.8662   -7.2233  -26.2886 C   0  0  0  0  0  0  0  0  0  0  0  0
  -16.1904   -4.6757  -27.3611 C   0  0  0  0  0  0  0  0  0  0  0  0
  -16.3509   -3.3300  -27.9340 C   0  0  2  0  0  0  0  0  0  0  0  0
  -15.7309   -8.5014  -25.7342 O   0  0  0  0  0  0  0  0  0  0  0  0
  9  1  1  1
  9  2  1  0
  5  3  2  0
  3  7  1  0
  6  4  1  0
  4  7  2  0
  8  5  1  0
  8  6  2  0
  7 10  1  0
  8  9  1  0
M  END
$$$$
