
     RDKit          3D

 10 10  0  0  0  0  0  0  0  0999 V2000
  -16.7410   -3.5726  -29.3180 C   0  0  0  0  0  0  0  0  0  0  0  0
  -16.2444   -2.4595  -27.1690 C   0  0  0  0  0  0  0  0  0  0  0  0
  -14.7934   -6.6736  -27.2737 C   0  0  0  0  0  0  0  0  0  0  0  0
  -16.7099   -6.8532  -25.8420 C   0  0  0  0  0  0  0  0  0  0  0  0
  -15.2612   -5.4653  -27.7513 C   0  0  0  0  0  0  0  0  0  0  0  0
  -17.1476   -5.6416  -26.3424 C   0  0  0  0  0  0  0  0  0  0  0  0
  -15.5128   -7.3693  -26.3212 C   0  0  0  0  0  0  0  0  0  0  0  0
  -16.4457   -4.9333  -27.2912 C   0  0  0  0  0  0  0  0  0  0  0  0
  -16.9289   -3.6446  -27.8114 C   0  0  2  0  0  0  0  0  0  0  0  0
  -15.0691   -8.5964  -25.8146 O   0  0  0  0  0  0  0  0  0  0  0  0
  9  1  1  6
  9  2  1  0
  5  3  2  0
  3  7  1  0
  6  4  1  0
  4  7  2  0
  8  5  1  0
  8  6  2  0
  7 10  1  0
  8  9  1  0
M  END
$$$$
