
     RDKit          3D

 10 10  0  0  0  0  0  0  0  0999 V2000
  -17.4433   -3.7359  -29.4119 C   0  0  0  0  0  0  0  0  0  0  0  0
  -16.2081   -2.5097  -27.6585 C   0  0  0  0  0  0  0  0  0  0  0  0
  -17.0250   -6.8314  -25.9648 C   0  0  0  0  0  0  0  0  0  0  0  0
  -15.0508   -6.6963  -27.3210 C   0  0  0  0  0  0  0  0  0  0  0  0
  -17.4553   -5.6193  -26.4674 C   0  0  0  0  0  0  0  0  0  0  0  0
  -15.5125   -5.4859  -27.8024 C   0  0  0  0  0  0  0  0  0  0  0  0
  -15.8261   -7.3724  -26.3879 C   0  0  0  0  0  0  0  0  0  0  0  0
  -16.7037   -4.9303  -27.3937 C   0  0  0  0  0  0  0  0  0  0  0  0
  -17.1779   -3.6401  -27.9183 C   0  0  2  0  0  0  0  0  0  0  0  0
  -15.3588   -8.5984  -25.9002 O   0  0  0  0  0  0  0  0  0  0  0  0
  9  1  1  6
  9  2  1  0
  5  3  2  0
  3  7  1  0
  6  4  1  0
  4  7  2  0
  8  5  1  0
  8  6  2  0
  7 10  1  0
  8  9  1  0
M  END
$$$$
