
     RDKit          3D

 10 10  0  0  0  0  0  0  0  0999 V2000
  -17.1248   -3.5623  -29.3486 C   0  0  0  0  0  0  0  0  0  0  0  0
  -15.8226   -2.3915  -27.6058 C   0  0  0  0  0  0  0  0  0  0  0  0
  -14.7282   -6.5703  -27.3938 C   0  0  0  0  0  0  0  0  0  0  0  0
  -16.6522   -6.7597  -25.9735 C   0  0  0  0  0  0  0  0  0  0  0  0
  -15.1775   -5.3438  -27.8419 C   0  0  0  0  0  0  0  0  0  0  0  0
  -17.0713   -5.5298  -26.4442 C   0  0  0  0  0  0  0  0  0  0  0  0
  -15.4607   -7.2801  -26.4618 C   0  0  0  0  0  0  0  0  0  0  0  0
  -16.3562   -4.8073  -27.3723 C   0  0  0  0  0  0  0  0  0  0  0  0
  -16.8195   -3.4991  -27.8609 C   0  0  2  0  0  0  0  0  0  0  0  0
  -15.0359   -8.5258  -25.9853 O   0  0  0  0  0  0  0  0  0  0  0  0
  9  1  1  6
  9  2  1  0
  5  3  2  0
  3  7  1  0
  6  4  1  0
  4  7  2  0
  8  5  1  0
  8  6  2  0
  7 10  1  0
  8  9  1  0
M  END
$$$$
