
     RDKit          3D

 10 10  0  0  0  0  0  0  0  0999 V2000
  -15.4884   -2.6357  -27.7473 C   0  0  0  0  0  0  0  0  0  0  0  0
  -17.7154   -3.3593  -28.5282 C   0  0  0  0  0  0  0  0  0  0  0  0
  -14.8634   -7.0252  -27.1053 C   0  0  0  0  0  0  0  0  0  0  0  0
  -16.8674   -6.5080  -25.9150 C   0  0  0  0  0  0  0  0  0  0  0  0
  -15.0068   -5.8670  -27.8454 C   0  0  0  0  0  0  0  0  0  0  0  0
  -16.9838   -5.3532  -26.6738 C   0  0  0  0  0  0  0  0  0  0  0  0
  -15.7807   -7.3480  -26.1485 C   0  0  0  0  0  0  0  0  0  0  0  0
  -16.0732   -5.0012  -27.6469 C   0  0  0  0  0  0  0  0  0  0  0  0
  -16.2690   -3.7686  -28.4007 C   0  0  2  0  0  0  0  0  0  0  0  0
  -15.6662   -8.5034  -25.3877 O   0  0  0  0  0  0  0  0  0  0  0  0
  1  9  1  6
  2  9  1  6
  5  3  2  0
  3  7  1  0
  6  4  1  0
  4  7  2  0
  8  5  1  0
  8  6  2  0
  7 10  1  0
  9  8  1  1
M  END
$$$$
