
     RDKit          3D

 10 10  0  0  0  0  0  0  0  0999 V2000
  -16.8665   -3.4617  -29.3640 C   0  0  0  0  0  0  0  0  0  0  0  0
  -16.1030   -2.2947  -27.3246 C   0  0  0  0  0  0  0  0  0  0  0  0
  -16.8363   -6.6439  -25.8786 C   0  0  0  0  0  0  0  0  0  0  0  0
  -14.8419   -6.5416  -27.2079 C   0  0  0  0  0  0  0  0  0  0  0  0
  -17.2424   -5.4277  -26.3912 C   0  0  0  0  0  0  0  0  0  0  0  0
  -15.2797   -5.3265  -27.6996 C   0  0  0  0  0  0  0  0  0  0  0  0
  -15.6395   -7.2032  -26.2833 C   0  0  0  0  0  0  0  0  0  0  0  0
  -16.4684   -4.7527  -27.3093 C   0  0  0  0  0  0  0  0  0  0  0  0
  -16.9169   -3.4577  -27.8448 C   0  0  2  0  0  0  0  0  0  0  0  0
  -15.1964   -8.4340  -25.7850 O   0  0  0  0  0  0  0  0  0  0  0  0
  9  1  1  6
  9  2  1  0
  5  3  2  0
  3  7  1  0
  6  4  1  0
  4  7  2  0
  8  5  1  0
  8  6  2  0
  7 10  1  0
  8  9  1  0
M  END
$$$$
