
     RDKit          3D

 10 10  0  0  0  0  0  0  0  0999 V2000
  -17.4922   -2.6533  -27.0492 C   0  0  0  0  0  0  0  0  0  0  0  0
  -16.8141   -3.3523  -29.3197 C   0  0  0  0  0  0  0  0  0  0  0  0
  -16.9714   -6.6089  -26.0672 C   0  0  0  0  0  0  0  0  0  0  0  0
  -14.8258   -6.7059  -27.1359 C   0  0  0  0  0  0  0  0  0  0  0  0
  -17.1618   -5.3336  -26.5613 C   0  0  0  0  0  0  0  0  0  0  0  0
  -15.0502   -5.4285  -27.6133 C   0  0  0  0  0  0  0  0  0  0  0  0
  -15.8075   -7.2972  -26.3514 C   0  0  0  0  0  0  0  0  0  0  0  0
  -16.2025   -4.7264  -27.3416 C   0  0  0  0  0  0  0  0  0  0  0  0
  -16.4224   -3.3669  -27.8595 C   0  0  2  0  0  0  0  0  0  0  0  0
  -15.5806   -8.5909  -25.8676 O   0  0  0  0  0  0  0  0  0  0  0  0
  9  1  1  1
  9  2  1  0
  5  3  2  0
  3  7  1  0
  6  4  1  0
  4  7  2  0
  8  5  1  0
  8  6  2  0
  7 10  1  0
  8  9  1  0
M  END
$$$$
