
     RDKit          3D

 10 10  0  0  0  0  0  0  0  0999 V2000
  -16.9550   -2.5913  -26.8991 C   0  0  0  0  0  0  0  0  0  0  0  0
  -16.9789   -3.4608  -29.2092 C   0  0  0  0  0  0  0  0  0  0  0  0
  -16.8157   -6.6938  -25.9909 C   0  0  0  0  0  0  0  0  0  0  0  0
  -14.7360   -6.8402  -27.1543 C   0  0  0  0  0  0  0  0  0  0  0  0
  -17.0065   -5.4221  -26.4968 C   0  0  0  0  0  0  0  0  0  0  0  0
  -14.9559   -5.5625  -27.6459 C   0  0  0  0  0  0  0  0  0  0  0  0
  -15.6941   -7.4008  -26.3125 C   0  0  0  0  0  0  0  0  0  0  0  0
  -16.0789   -4.8245  -27.3385 C   0  0  0  0  0  0  0  0  0  0  0  0
  -16.2337   -3.4869  -27.8979 C   0  0  2  0  0  0  0  0  0  0  0  0
  -15.4719   -8.6801  -25.8216 O   0  0  0  0  0  0  0  0  0  0  0  0
  1  9  1  6
  2  9  1  6
  5  3  2  0
  3  7  1  0
  6  4  1  0
  4  7  2  0
  8  5  1  0
  8  6  2  0
  7 10  1  0
  9  8  1  1
M  END
$$$$
