
     RDKit          3D

 10 10  0  0  0  0  0  0  0  0999 V2000
  -17.0878   -3.3968  -29.2333 C   0  0  0  0  0  0  0  0  0  0  0  0
  -15.9480   -2.2110  -27.3898 C   0  0  0  0  0  0  0  0  0  0  0  0
  -16.9137   -6.5281  -25.7865 C   0  0  0  0  0  0  0  0  0  0  0  0
  -14.8838   -6.4315  -27.0614 C   0  0  0  0  0  0  0  0  0  0  0  0
  -17.2956   -5.3039  -26.2985 C   0  0  0  0  0  0  0  0  0  0  0  0
  -15.2980   -5.2083  -27.5535 C   0  0  0  0  0  0  0  0  0  0  0  0
  -15.7113   -7.0943  -26.1644 C   0  0  0  0  0  0  0  0  0  0  0  0
  -16.4917   -4.6275  -27.1896 C   0  0  0  0  0  0  0  0  0  0  0  0
  -16.9148   -3.3240  -27.7250 C   0  0  2  0  0  0  0  0  0  0  0  0
  -15.2921   -8.3333  -25.6657 O   0  0  0  0  0  0  0  0  0  0  0  0
  9  1  1  6
  9  2  1  0
  5  3  2  0
  3  7  1  0
  6  4  1  0
  4  7  2  0
  8  5  1  0
  8  6  2  0
  7 10  1  0
  8  9  1  0
M  END
$$$$
