
     RDKit          3D

 10 10  0  0  0  0  0  0  0  0999 V2000
  -16.9925   -2.5320  -27.0473 C   0  0  0  0  0  0  0  0  0  0  0  0
  -16.7158   -3.4556  -29.3219 C   0  0  0  0  0  0  0  0  0  0  0  0
  -16.8488   -6.4559  -25.8338 C   0  0  0  0  0  0  0  0  0  0  0  0
  -14.8844   -6.9001  -27.1372 C   0  0  0  0  0  0  0  0  0  0  0  0
  -16.9424   -5.1998  -26.3997 C   0  0  0  0  0  0  0  0  0  0  0  0
  -15.0091   -5.6365  -27.6827 C   0  0  0  0  0  0  0  0  0  0  0  0
  -15.8238   -7.3074  -26.1988 C   0  0  0  0  0  0  0  0  0  0  0  0
  -16.0226   -4.7735  -27.3325 C   0  0  0  0  0  0  0  0  0  0  0  0
  -16.1380   -3.4318  -27.9250 C   0  0  2  0  0  0  0  0  0  0  0  0
  -15.6978   -8.5872  -25.6460 O   0  0  0  0  0  0  0  0  0  0  0  0
  9  1  1  1
  9  2  1  0
  5  3  2  0
  3  7  1  0
  6  4  1  0
  4  7  2  0
  8  5  1  0
  8  6  2  0
  7 10  1  0
  8  9  1  0
M  END
$$$$
