
     RDKit          3D

 10 10  0  0  0  0  0  0  0  0999 V2000
  -17.0999   -2.5327  -26.9562 C   0  0  0  0  0  0  0  0  0  0  0  0
  -17.3492   -3.4844  -29.2225 C   0  0  0  0  0  0  0  0  0  0  0  0
  -15.0863   -6.8644  -27.1770 C   0  0  0  0  0  0  0  0  0  0  0  0
  -17.1432   -6.6159  -25.9678 C   0  0  0  0  0  0  0  0  0  0  0  0
  -15.2469   -5.6019  -27.7131 C   0  0  0  0  0  0  0  0  0  0  0  0
  -17.2714   -5.3569  -26.5232 C   0  0  0  0  0  0  0  0  0  0  0  0
  -16.0299   -7.3742  -26.3059 C   0  0  0  0  0  0  0  0  0  0  0  0
  -16.3428   -4.8312  -27.3926 C   0  0  0  0  0  0  0  0  0  0  0  0
  -16.4975   -3.4882  -27.9733 C   0  0  2  0  0  0  0  0  0  0  0  0
  -15.8997   -8.6494  -25.7436 O   0  0  0  0  0  0  0  0  0  0  0  0
  9  1  1  1
  9  2  1  0
  5  3  2  0
  3  7  1  0
  6  4  1  0
  4  7  2  0
  8  5  1  0
  8  6  2  0
  7 10  1  0
  8  9  1  0
M  END
$$$$
