
     RDKit          3D

 10 10  0  0  0  0  0  0  0  0999 V2000
  -15.8936   -2.4421  -27.4097 C   0  0  0  0  0  0  0  0  0  0  0  0
  -17.3649   -3.4405  -29.1218 C   0  0  0  0  0  0  0  0  0  0  0  0
  -16.6676   -6.5573  -26.1372 C   0  0  0  0  0  0  0  0  0  0  0  0
  -14.6112   -6.8768  -27.3072 C   0  0  0  0  0  0  0  0  0  0  0  0
  -16.8408   -5.3450  -26.7774 C   0  0  0  0  0  0  0  0  0  0  0  0
  -14.8131   -5.6563  -27.9335 C   0  0  0  0  0  0  0  0  0  0  0  0
  -15.5663   -7.3201  -26.3950 C   0  0  0  0  0  0  0  0  0  0  0  0
  -15.9154   -4.8643  -27.6932 C   0  0  0  0  0  0  0  0  0  0  0  0
  -16.0523   -3.5932  -28.3944 C   0  0  2  0  0  0  0  0  0  0  0  0
  -15.3621   -8.5422  -25.7692 O   0  0  0  0  0  0  0  0  0  0  0  0
  1  9  1  6
  2  9  1  6
  5  3  2  0
  3  7  1  0
  6  4  1  0
  4  7  2  0
  8  5  1  0
  8  6  2  0
  7 10  1  0
  9  8  1  1
M  END
$$$$
