
     RDKit          3D

 10 10  0  0  0  0  0  0  0  0999 V2000
  -16.4080   -3.6765  -29.4623 C   0  0  0  0  0  0  0  0  0  0  0  0
  -16.5392   -2.5480  -27.2709 C   0  0  0  0  0  0  0  0  0  0  0  0
  -14.8195   -6.7557  -27.0647 C   0  0  0  0  0  0  0  0  0  0  0  0
  -16.9302   -6.9014  -25.9583 C   0  0  0  0  0  0  0  0  0  0  0  0
  -15.2174   -5.5754  -27.6633 C   0  0  0  0  0  0  0  0  0  0  0  0
  -17.3004   -5.7153  -26.5740 C   0  0  0  0  0  0  0  0  0  0  0  0
  -15.6626   -7.4167  -26.2199 C   0  0  0  0  0  0  0  0  0  0  0  0
  -16.4705   -5.0256  -27.4317 C   0  0  0  0  0  0  0  0  0  0  0  0
  -16.9370   -3.7844  -28.0381 C   0  0  2  0  0  0  0  0  0  0  0  0
  -15.2941   -8.6041  -25.6025 O   0  0  0  0  0  0  0  0  0  0  0  0
  1  9  1  6
  2  9  1  6
  5  3  2  0
  3  7  1  0
  6  4  1  0
  4  7  2  0
  8  5  1  0
  8  6  2  0
  7 10  1  0
  9  8  1  1
M  END
$$$$
