
     RDKit          3D

 10 10  0  0  0  0  0  0  0  0999 V2000
  -16.6023   -2.5265  -27.0554 C   0  0  0  0  0  0  0  0  0  0  0  0
  -17.2768   -3.4852  -29.2277 C   0  0  0  0  0  0  0  0  0  0  0  0
  -14.8796   -6.9274  -27.1742 C   0  0  0  0  0  0  0  0  0  0  0  0
  -16.9845   -6.5932  -26.0982 C   0  0  0  0  0  0  0  0  0  0  0  0
  -14.9847   -5.6811  -27.7618 C   0  0  0  0  0  0  0  0  0  0  0  0
  -17.0611   -5.3475  -26.7023 C   0  0  0  0  0  0  0  0  0  0  0  0
  -15.8659   -7.3846  -26.3500 C   0  0  0  0  0  0  0  0  0  0  0  0
  -16.0807   -4.8592  -27.5393 C   0  0  0  0  0  0  0  0  0  0  0  0
  -16.2384   -3.5377  -28.1348 C   0  0  2  0  0  0  0  0  0  0  0  0
  -15.7914   -8.6313  -25.7441 O   0  0  0  0  0  0  0  0  0  0  0  0
  1  9  1  6
  2  9  1  6
  5  3  2  0
  3  7  1  0
  6  4  1  0
  4  7  2  0
  8  5  1  0
  8  6  2  0
  7 10  1  0
  9  8  1  1
M  END
$$$$
