
     RDKit          3D

 10 10  0  0  0  0  0  0  0  0999 V2000
  -17.3389   -2.7166  -27.2912 C   0  0  0  0  0  0  0  0  0  0  0  0
  -16.3215   -3.3567  -29.4496 C   0  0  0  0  0  0  0  0  0  0  0  0
  -16.6835   -6.5628  -26.0690 C   0  0  0  0  0  0  0  0  0  0  0  0
  -14.5890   -6.7337  -27.2263 C   0  0  0  0  0  0  0  0  0  0  0  0
  -16.8645   -5.2931  -26.5806 C   0  0  0  0  0  0  0  0  0  0  0  0
  -14.8033   -5.4607  -27.7198 C   0  0  0  0  0  0  0  0  0  0  0  0
  -15.5497   -7.2851  -26.3885 C   0  0  0  0  0  0  0  0  0  0  0  0
  -15.9256   -4.7252  -27.4135 C   0  0  0  0  0  0  0  0  0  0  0  0
  -16.1352   -3.3710  -27.9494 C   0  0  2  0  0  0  0  0  0  0  0  0
  -15.3331   -8.5744  -25.8885 O   0  0  0  0  0  0  0  0  0  0  0  0
  9  1  1  1
  9  2  1  0
  5  3  2  0
  3  7  1  0
  6  4  1  0
  4  7  2  0
  8  5  1  0
  8  6  2  0
  7 10  1  0
  8  9  1  0
M  END
$$$$
