
     RDKit          3D

 10 10  0  0  0  0  0  0  0  0999 V2000
  -16.5176   -2.3728  -27.3057 C   0  0  0  0  0  0  0  0  0  0  0  0
  -17.4137   -3.4500  -29.3405 C   0  0  0  0  0  0  0  0  0  0  0  0
  -16.9569   -6.4913  -26.2457 C   0  0  0  0  0  0  0  0  0  0  0  0
  -14.7978   -6.7555  -27.2576 C   0  0  0  0  0  0  0  0  0  0  0  0
  -17.1004   -5.2667  -26.8676 C   0  0  0  0  0  0  0  0  0  0  0  0
  -14.9755   -5.5262  -27.8637 C   0  0  0  0  0  0  0  0  0  0  0  0
  -15.8098   -7.2373  -26.4375 C   0  0  0  0  0  0  0  0  0  0  0  0
  -16.1104   -4.7680  -27.6854 C   0  0  0  0  0  0  0  0  0  0  0  0
  -16.2804   -3.4612  -28.3399 C   0  0  2  0  0  0  0  0  0  0  0  0
  -15.6302   -8.4823  -25.8234 O   0  0  0  0  0  0  0  0  0  0  0  0
  9  1  1  1
  9  2  1  0
  5  3  2  0
  3  7  1  0
  6  4  1  0
  4  7  2  0
  8  5  1  0
  8  6  2  0
  7 10  1  0
  8  9  1  0
M  END
$$$$
