
     RDKit          3D

 10 10  0  0  0  0  0  0  0  0999 V2000
  -17.3242   -2.5784  -26.8781 C   0  0  0  0  0  0  0  0  0  0  0  0
  -17.0952   -3.3864  -29.2015 C   0  0  0  0  0  0  0  0  0  0  0  0
  -14.8680   -6.7076  -27.1502 C   0  0  0  0  0  0  0  0  0  0  0  0
  -16.9563   -6.6292  -25.9722 C   0  0  0  0  0  0  0  0  0  0  0  0
  -15.0919   -5.4343  -27.6355 C   0  0  0  0  0  0  0  0  0  0  0  0
  -17.1473   -5.3566  -26.4763 C   0  0  0  0  0  0  0  0  0  0  0  0
  -15.7954   -7.3075  -26.3202 C   0  0  0  0  0  0  0  0  0  0  0  0
  -16.2358   -4.7418  -27.3043 C   0  0  0  0  0  0  0  0  0  0  0  0
  -16.4577   -3.3859  -27.8307 C   0  0  2  0  0  0  0  0  0  0  0  0
  -15.6016   -8.5964  -25.8098 O   0  0  0  0  0  0  0  0  0  0  0  0
  9  1  1  1
  9  2  1  0
  5  3  2  0
  3  7  1  0
  6  4  1  0
  4  7  2  0
  8  5  1  0
  8  6  2  0
  7 10  1  0
  8  9  1  0
M  END
$$$$
