
     RDKit          3D

 10 10  0  0  0  0  0  0  0  0999 V2000
  -16.6040   -3.4097  -29.4717 C   0  0  0  0  0  0  0  0  0  0  0  0
  -16.5030   -2.3032  -27.2651 C   0  0  0  0  0  0  0  0  0  0  0  0
  -17.0859   -6.6444  -25.9903 C   0  0  0  0  0  0  0  0  0  0  0  0
  -15.0072   -6.5597  -27.1848 C   0  0  0  0  0  0  0  0  0  0  0  0
  -17.4601   -5.4399  -26.5525 C   0  0  0  0  0  0  0  0  0  0  0  0
  -15.4143   -5.3561  -27.7283 C   0  0  0  0  0  0  0  0  0  0  0  0
  -15.8631   -7.2066  -26.3029 C   0  0  0  0  0  0  0  0  0  0  0  0
  -16.6281   -4.7796  -27.4297 C   0  0  0  0  0  0  0  0  0  0  0  0
  -17.0432   -3.4970  -28.0192 C   0  0  2  0  0  0  0  0  0  0  0  0
  -15.4511   -8.4258  -25.7522 O   0  0  0  0  0  0  0  0  0  0  0  0
  9  1  1  6
  9  2  1  0
  5  3  2  0
  3  7  1  0
  6  4  1  0
  4  7  2  0
  8  5  1  0
  8  6  2  0
  7 10  1  0
  8  9  1  0
M  END
$$$$
