
     RDKit          3D

 10 10  0  0  0  0  0  0  0  0999 V2000
  -17.0374   -3.6221  -29.3020 C   0  0  0  0  0  0  0  0  0  0  0  0
  -15.9727   -2.4461  -27.4108 C   0  0  0  0  0  0  0  0  0  0  0  0
  -14.7703   -6.6967  -27.2777 C   0  0  0  0  0  0  0  0  0  0  0  0
  -16.7395   -6.8544  -25.9369 C   0  0  0  0  0  0  0  0  0  0  0  0
  -15.1892   -5.4651  -27.7439 C   0  0  0  0  0  0  0  0  0  0  0  0
  -17.1327   -5.6168  -26.4230 C   0  0  0  0  0  0  0  0  0  0  0  0
  -15.5330   -7.3892  -26.3833 C   0  0  0  0  0  0  0  0  0  0  0  0
  -16.3834   -4.8943  -27.3267 C   0  0  0  0  0  0  0  0  0  0  0  0
  -16.8690   -3.5992  -27.7884 C   0  0  2  0  0  0  0  0  0  0  0  0
  -15.1413   -8.6284  -25.8953 O   0  0  0  0  0  0  0  0  0  0  0  0
  1  9  1  6
  2  9  1  6
  5  3  2  0
  3  7  1  0
  6  4  1  0
  4  7  2  0
  8  5  1  0
  8  6  2  0
  7 10  1  0
  9  8  1  6
M  END
$$$$
