
     RDKit          3D

 10 10  0  0  0  0  0  0  0  0999 V2000
  -16.9236   -3.6492  -29.3534 C   0  0  0  0  0  0  0  0  0  0  0  0
  -16.0149   -2.4159  -27.4152 C   0  0  0  0  0  0  0  0  0  0  0  0
  -14.7465   -6.5909  -27.1581 C   0  0  0  0  0  0  0  0  0  0  0  0
  -16.7348   -6.7751  -25.8285 C   0  0  0  0  0  0  0  0  0  0  0  0
  -15.1984   -5.3909  -27.6707 C   0  0  0  0  0  0  0  0  0  0  0  0
  -17.1554   -5.5718  -26.3623 C   0  0  0  0  0  0  0  0  0  0  0  0
  -15.5098   -7.2848  -26.2389 C   0  0  0  0  0  0  0  0  0  0  0  0
  -16.4100   -4.8654  -27.2789 C   0  0  0  0  0  0  0  0  0  0  0  0
  -16.8756   -3.5855  -27.8355 C   0  0  2  0  0  0  0  0  0  0  0  0
  -15.0834   -8.5036  -25.6984 O   0  0  0  0  0  0  0  0  0  0  0  0
  9  1  1  6
  9  2  1  0
  5  3  2  0
  3  7  1  0
  6  4  1  0
  4  7  2  0
  8  5  1  0
  8  6  2  0
  7 10  1  0
  8  9  1  0
M  END
$$$$
