
     RDKit          3D

 10 10  0  0  0  0  0  0  0  0999 V2000
  -17.2976   -3.7282  -29.4686 C   0  0  0  0  0  0  0  0  0  0  0  0
  -16.0115   -2.5790  -27.7027 C   0  0  0  0  0  0  0  0  0  0  0  0
  -16.9364   -6.9574  -26.1309 C   0  0  0  0  0  0  0  0  0  0  0  0
  -15.0086   -6.7869  -27.5290 C   0  0  0  0  0  0  0  0  0  0  0  0
  -17.3575   -5.7146  -26.5640 C   0  0  0  0  0  0  0  0  0  0  0  0
  -15.4575   -5.5424  -27.9443 C   0  0  0  0  0  0  0  0  0  0  0  0
  -15.7748   -7.4936  -26.6047 C   0  0  0  0  0  0  0  0  0  0  0  0
  -16.6263   -4.9755  -27.4834 C   0  0  0  0  0  0  0  0  0  0  0  0
  -17.0274   -3.6613  -27.9712 C   0  0  2  0  0  0  0  0  0  0  0  0
  -15.3235   -8.7393  -26.1903 O   0  0  0  0  0  0  0  0  0  0  0  0
  1  9  1  6
  2  9  1  6
  5  3  2  0
  3  7  1  0
  6  4  1  0
  4  7  2  0
  8  5  1  0
  8  6  2  0
  7 10  1  0
  9  8  1  6
M  END
$$$$
