
     RDKit          3D

 10 10  0  0  0  0  0  0  0  0999 V2000
  -16.6302   -2.3290  -26.9014 C   0  0  0  0  0  0  0  0  0  0  0  0
  -17.2260   -3.3179  -29.0856 C   0  0  0  0  0  0  0  0  0  0  0  0
  -14.7056   -6.6601  -27.1621 C   0  0  0  0  0  0  0  0  0  0  0  0
  -16.7611   -6.4576  -25.9420 C   0  0  0  0  0  0  0  0  0  0  0  0
  -14.9016   -5.4052  -27.7041 C   0  0  0  0  0  0  0  0  0  0  0  0
  -16.9247   -5.2054  -26.5034 C   0  0  0  0  0  0  0  0  0  0  0  0
  -15.6307   -7.1890  -26.2826 C   0  0  0  0  0  0  0  0  0  0  0  0
  -16.0150   -4.6610  -27.3812 C   0  0  0  0  0  0  0  0  0  0  0  0
  -16.2075   -3.3257  -27.9683 C   0  0  2  0  0  0  0  0  0  0  0  0
  -15.4646   -8.4573  -25.7142 O   0  0  0  0  0  0  0  0  0  0  0  0
  9  1  1  1
  9  2  1  0
  5  3  2  0
  3  7  1  0
  6  4  1  0
  4  7  2  0
  8  5  1  0
  8  6  2  0
  7 10  1  0
  8  9  1  0
M  END
$$$$
