
     RDKit          3D

 10 10  0  0  0  0  0  0  0  0999 V2000
  -16.9759   -3.5194  -29.3135 C   0  0  0  0  0  0  0  0  0  0  0  0
  -15.9643   -2.2846  -27.4279 C   0  0  0  0  0  0  0  0  0  0  0  0
  -14.7167   -6.4247  -27.0875 C   0  0  0  0  0  0  0  0  0  0  0  0
  -16.7578   -6.6675  -25.8506 C   0  0  0  0  0  0  0  0  0  0  0  0
  -15.1659   -5.2220  -27.5961 C   0  0  0  0  0  0  0  0  0  0  0  0
  -17.1749   -5.4605  -26.3789 C   0  0  0  0  0  0  0  0  0  0  0  0
  -15.5075   -7.1490  -26.2164 C   0  0  0  0  0  0  0  0  0  0  0  0
  -16.4023   -4.7240  -27.2479 C   0  0  0  0  0  0  0  0  0  0  0  0
  -16.8646   -3.4408  -27.7996 C   0  0  2  0  0  0  0  0  0  0  0  0
  -15.0847   -8.3715  -25.6814 O   0  0  0  0  0  0  0  0  0  0  0  0
  9  1  1  6
  9  2  1  0
  5  3  2  0
  3  7  1  0
  6  4  1  0
  4  7  2  0
  8  5  1  0
  8  6  2  0
  7 10  1  0
  8  9  1  0
M  END
$$$$
