
     RDKit          3D

 10 10  0  0  0  0  0  0  0  0999 V2000
  -16.7451   -3.4871  -29.4818 C   0  0  0  0  0  0  0  0  0  0  0  0
  -16.4892   -2.3478  -27.3046 C   0  0  0  0  0  0  0  0  0  0  0  0
  -14.9776   -6.5344  -27.1983 C   0  0  0  0  0  0  0  0  0  0  0  0
  -17.0459   -6.7436  -26.0011 C   0  0  0  0  0  0  0  0  0  0  0  0
  -15.4074   -5.3369  -27.7351 C   0  0  0  0  0  0  0  0  0  0  0  0
  -17.4432   -5.5423  -26.5570 C   0  0  0  0  0  0  0  0  0  0  0  0
  -15.7917   -7.2394  -26.3328 C   0  0  0  0  0  0  0  0  0  0  0  0
  -16.6472   -4.8250  -27.4209 C   0  0  0  0  0  0  0  0  0  0  0  0
  -17.0886   -3.5476  -28.0024 C   0  0  2  0  0  0  0  0  0  0  0  0
  -15.3890   -8.4561  -25.7699 O   0  0  0  0  0  0  0  0  0  0  0  0
  9  1  1  6
  9  2  1  0
  5  3  2  0
  3  7  1  0
  6  4  1  0
  4  7  2  0
  8  5  1  0
  8  6  2  0
  7 10  1  0
  8  9  1  0
M  END
$$$$
