
     RDKit          3D

 10 10  0  0  0  0  0  0  0  0999 V2000
  -17.1784   -2.7230  -27.0988 C   0  0  0  0  0  0  0  0  0  0  0  0
  -16.4921   -3.5268  -29.3295 C   0  0  0  0  0  0  0  0  0  0  0  0
  -16.8641   -6.6934  -25.9191 C   0  0  0  0  0  0  0  0  0  0  0  0
  -14.8061   -6.9542  -27.1009 C   0  0  0  0  0  0  0  0  0  0  0  0
  -16.9963   -5.4184  -26.4354 C   0  0  0  0  0  0  0  0  0  0  0  0
  -14.9668   -5.6716  -27.6026 C   0  0  0  0  0  0  0  0  0  0  0  0
  -15.7825   -7.4585  -26.2447 C   0  0  0  0  0  0  0  0  0  0  0  0
  -16.0484   -4.8756  -27.2916 C   0  0  0  0  0  0  0  0  0  0  0  0
  -16.1419   -3.5371  -27.8622 C   0  0  2  0  0  0  0  0  0  0  0  0
  -15.6195   -8.7428  -25.7436 O   0  0  0  0  0  0  0  0  0  0  0  0
  1  9  1  6
  2  9  1  6
  5  3  2  0
  3  7  1  0
  6  4  1  0
  4  7  2  0
  8  5  1  0
  8  6  2  0
  7 10  1  0
  9  8  1  1
M  END
$$$$
