
     RDKit          3D

 10 10  0  0  0  0  0  0  0  0999 V2000
  -17.2434   -3.7678  -29.1611 C   0  0  0  0  0  0  0  0  0  0  0  0
  -15.6961   -2.6179  -27.6195 C   0  0  0  0  0  0  0  0  0  0  0  0
  -16.7658   -6.9028  -25.8025 C   0  0  0  0  0  0  0  0  0  0  0  0
  -14.8390   -6.7985  -27.2085 C   0  0  0  0  0  0  0  0  0  0  0  0
  -17.1640   -5.6612  -26.2600 C   0  0  0  0  0  0  0  0  0  0  0  0
  -15.2649   -5.5543  -27.6481 C   0  0  0  0  0  0  0  0  0  0  0  0
  -15.6162   -7.4711  -26.2680 C   0  0  0  0  0  0  0  0  0  0  0  0
  -16.4212   -4.9554  -27.1961 C   0  0  0  0  0  0  0  0  0  0  0  0
  -16.7982   -3.6439  -27.7098 C   0  0  2  0  0  0  0  0  0  0  0  0
  -15.1879   -8.7165  -25.8293 O   0  0  0  0  0  0  0  0  0  0  0  0
  1  9  1  6
  2  9  1  6
  5  3  2  0
  3  7  1  0
  6  4  1  0
  4  7  2  0
  8  5  1  0
  8  6  2  0
  7 10  1  0
  9  8  1  6
M  END
$$$$
