
     RDKit          3D

 10 10  0  0  0  0  0  0  0  0999 V2000
  -16.9513   -3.7453  -29.4898 C   0  0  0  0  0  0  0  0  0  0  0  0
  -15.2277   -2.5888  -28.1539 C   0  0  0  0  0  0  0  0  0  0  0  0
  -14.7513   -6.7849  -27.1580 C   0  0  0  0  0  0  0  0  0  0  0  0
  -16.7419   -6.5241  -25.8660 C   0  0  0  0  0  0  0  0  0  0  0  0
  -14.9958   -5.5729  -27.7751 C   0  0  0  0  0  0  0  0  0  0  0  0
  -16.9600   -5.3118  -26.5028 C   0  0  0  0  0  0  0  0  0  0  0  0
  -15.6116   -7.2611  -26.2123 C   0  0  0  0  0  0  0  0  0  0  0  0
  -16.1088   -4.8054  -27.4615 C   0  0  0  0  0  0  0  0  0  0  0  0
  -16.4110   -3.5217  -28.0834 C   0  0  2  0  0  0  0  0  0  0  0  0
  -15.3953   -8.4744  -25.5735 O   0  0  0  0  0  0  0  0  0  0  0  0
  1  9  1  6
  2  9  1  6
  5  3  2  0
  3  7  1  0
  6  4  1  0
  4  7  2  0
  8  5  1  0
  8  6  2  0
  7 10  1  0
  9  8  1  6
M  END
$$$$
