
     RDKit          3D

 50 57  0  0  0  0  0  0  0  0999 V2000
  -45.6052  162.7269   84.9089 C   0  0  0  0  0  0  0  0  0  0  0  0
  -46.7658  163.1306   85.5362 C   0  0  0  0  0  0  0  0  0  0  0  0
  -47.9869  163.0420   84.8966 C   0  0  0  0  0  0  0  0  0  0  0  0
  -47.9975  162.5341   83.6073 C   0  0  0  0  0  0  0  0  0  0  0  0
  -46.8379  162.1237   82.9624 C   0  0  0  0  0  0  0  0  0  0  0  0
  -45.6393  162.2263   83.6298 C   0  0  0  0  0  0  0  0  0  0  0  0
  -44.5066  161.8157   82.9743 C   0  0  0  0  0  0  0  0  0  0  0  0
  -44.5832  161.3212   81.6944 C   0  0  0  0  0  0  0  0  0  0  0  0
  -45.8069  161.2280   81.0419 C   0  0  0  0  0  0  0  0  0  0  0  0
  -45.8924  160.7330   79.7556 C   0  0  0  0  0  0  0  0  0  0  0  0
  -44.7758  160.3133   79.0699 C   0  0  0  0  0  0  0  0  0  0  0  0
  -43.5506  160.4100   79.7321 C   0  0  0  0  0  0  0  0  0  0  0  0
  -43.4669  160.9021   81.0098 C   0  0  0  0  0  0  0  0  0  0  0  0
  -42.6888  163.2009   83.9023 C   0  0  0  0  0  0  0  0  0  0  0  0
  -41.2127  163.2562   83.7025 C   0  0  0  0  0  0  0  0  0  0  0  0
  -39.8362  160.4613   81.7775 C   0  0  0  0  0  0  0  0  0  0  0  0
  -40.0073  161.1615   82.9528 C   0  0  0  0  0  0  0  0  0  0  0  0
  -39.0569  159.1940   81.5392 C   0  0  0  0  0  0  0  0  0  0  0  0
  -36.8620  158.6348   80.9103 C   0  0  0  0  0  0  0  0  0  0  0  0
  -36.7993  157.6298   79.8168 C   0  0  0  0  0  0  0  0  0  0  0  0
  -37.2047  157.9963   78.5530 C   0  0  0  0  0  0  0  0  0  0  0  0
  -37.1212  157.0212   77.5648 C   0  0  0  0  0  0  0  0  0  0  0  0
  -36.2626  155.4135   79.0866 C   0  0  0  0  0  0  0  0  0  0  0  0
  -36.3346  156.3609   80.0879 C   0  0  0  0  0  0  0  0  0  0  0  0
  -35.8804  153.0953   78.2990 C   0  0  0  0  0  0  0  0  0  0  0  0
  -34.1148  151.6698   79.2868 C   0  0  0  0  0  0  0  0  0  0  0  0
  -33.2608  150.5956   79.1336 C   0  0  0  0  0  0  0  0  0  0  0  0
  -32.3184  150.3850   80.1203 C   0  0  0  0  0  0  0  0  0  0  0  0
  -32.2152  151.2083   81.2328 C   0  0  0  0  0  0  0  0  0  0  0  0
  -33.0906  152.2644   81.3360 C   0  0  0  0  0  0  0  0  0  0  0  0
  -34.0452  152.5105   80.3744 C   0  0  0  0  0  0  0  0  0  0  0  0
  -31.5349  149.2107   79.7196 C   0  0  0  0  0  0  0  0  0  0  0  0
  -33.1275  149.5428   78.0623 C   0  0  2  0  0  0  0  0  0  0  0  0
  -34.3809  148.7016   78.0616 C   0  0  0  0  0  0  0  0  0  0  0  0
  -34.0327  147.2612   77.7410 C   0  0  0  0  0  0  0  0  0  0  0  0
  -32.7963  147.1684   76.8651 C   0  0  0  0  0  0  0  0  0  0  0  0
  -31.5885  147.6241   77.6554 C   0  0  0  0  0  0  0  0  0  0  0  0
  -37.5291  160.9494   80.9529 C   0  0  0  0  0  0  0  0  0  0  0  0
  -46.9056  161.6401   81.7126 N   0  0  0  0  0  0  0  0  0  0  0  0
  -43.2459  161.8997   83.6120 N   0  0  0  0  0  0  0  0  0  0  0  0
  -40.7774  162.2417   82.7332 N   0  0  0  0  0  0  0  0  0  0  0  0
  -41.0788  162.2122   81.4436 N   0  0  0  0  0  0  0  0  0  0  0  0
  -40.5318  161.1638   80.8517 N   0  0  0  0  0  0  0  0  0  0  0  0
  -36.6596  155.7783   77.8562 N   0  0  0  0  0  0  0  0  0  0  0  0
  -35.7942  154.0907   79.3155 N   0  0  0  0  0  0  0  0  0  0  0  0
  -35.1032  151.9151   78.3035 N   0  0  0  0  0  0  0  0  0  0  0  0
  -32.0242  148.7264   78.4777 N   0  0  0  0  0  0  0  0  0  0  0  0
  -37.9377  159.5787   80.7107 N   0  0  2  0  0  4  0  0  0  0  0  0
  -36.7187  153.3401   77.3658 O   0  0  0  0  0  0  0  0  0  0  0  0
  -30.5669  148.6826   80.3544 O   0  0  0  0  0  0  0  0  0  0  0  0
  1  2  2  0
  6  1  1  0
  2  3  1  0
  4  3  2  0
  5  4  1  0
  6  5  2  0
  5 39  1  0
  7  6  1  0
  7  8  2  0
 40  7  1  0
  8  9  1  0
  8 13  1  0
  9 10  1  0
  9 39  2  0
 10 11  2  0
 12 11  1  0
 13 12  2  0
 15 14  1  0
 14 40  1  0
 41 15  1  0
 16 17  2  0
 18 16  1  0
 16 43  1  0
 17 41  1  0
 48 18  1  0
 20 19  1  0
 19 48  1  0
 20 21  2  0
 24 20  1  0
 22 21  1  0
 44 22  2  0
 23 24  2  0
 23 44  1  0
 45 23  1  0
 25 45  1  0
 46 25  1  0
 25 49  2  0
 26 27  2  0
 26 31  1  0
 26 46  1  0
 27 28  1  0
 27 33  1  0
 28 29  2  0
 28 32  1  0
 29 30  1  0
 30 31  2  0
 32 47  1  0
 32 50  2  0
 33 34  1  1
 33 47  1  0
 34 35  1  0
 35 36  1  0
 36 37  1  0
 37 47  1  0
 48 38  1  1
 41 42  1  0
 42 43  2  0
M  CHG  1  48   1
M  END
$$$$
