
     RDKit          3D

 50 57  0  0  0  0  0  0  0  0999 V2000
  -41.3288  165.7443   82.4557 C   0  0  0  0  0  0  0  0  0  0  0  0
  -41.0367  167.0372   82.0733 C   0  0  0  0  0  0  0  0  0  0  0  0
  -42.0376  167.9073   81.6868 C   0  0  0  0  0  0  0  0  0  0  0  0
  -43.3387  167.4303   81.6992 C   0  0  0  0  0  0  0  0  0  0  0  0
  -43.6489  166.1316   82.0815 C   0  0  0  0  0  0  0  0  0  0  0  0
  -42.6265  165.2926   82.4603 C   0  0  0  0  0  0  0  0  0  0  0  0
  -42.9551  164.0143   82.8336 C   0  0  0  0  0  0  0  0  0  0  0  0
  -44.2657  163.6011   82.8239 C   0  0  0  0  0  0  0  0  0  0  0  0
  -45.2803  164.4685   82.4366 C   0  0  0  0  0  0  0  0  0  0  0  0
  -46.5996  164.0609   82.4233 C   0  0  0  0  0  0  0  0  0  0  0  0
  -46.9630  162.7859   82.7912 C   0  0  0  0  0  0  0  0  0  0  0  0
  -45.9382  161.9207   83.1789 C   0  0  0  0  0  0  0  0  0  0  0  0
  -44.6280  162.3267   83.1915 C   0  0  0  0  0  0  0  0  0  0  0  0
  -41.2883  162.2995   82.2291 C   0  0  0  0  0  0  0  0  0  0  0  0
  -39.8038  162.3031   82.3628 C   0  0  0  0  0  0  0  0  0  0  0  0
  -38.1022  159.0947   82.8349 C   0  0  0  0  0  0  0  0  0  0  0  0
  -38.2904  160.4275   83.1338 C   0  0  0  0  0  0  0  0  0  0  0  0
  -37.1165  158.1240   83.4318 C   0  0  0  0  0  0  0  0  0  0  0  0
  -35.0763  157.5603   82.4092 C   0  0  0  0  0  0  0  0  0  0  0  0
  -34.3817  156.6503   81.4609 C   0  0  0  0  0  0  0  0  0  0  0  0
  -33.8399  157.1773   80.3100 C   0  0  0  0  0  0  0  0  0  0  0  0
  -33.1963  156.2850   79.4592 C   0  0  0  0  0  0  0  0  0  0  0  0
  -33.6453  154.4445   80.8906 C   0  0  0  0  0  0  0  0  0  0  0  0
  -34.2906  155.3067   81.7541 C   0  0  0  0  0  0  0  0  0  0  0  0
  -33.1638  152.1430   80.1085 C   0  0  0  0  0  0  0  0  0  0  0  0
  -33.7204  149.9965   79.0095 C   0  0  0  0  0  0  0  0  0  0  0  0
  -34.2538  149.5278   77.8251 C   0  0  0  0  0  0  0  0  0  0  0  0
  -33.8784  148.2648   77.4129 C   0  0  0  0  0  0  0  0  0  0  0  0
  -33.0004  147.4780   78.1451 C   0  0  0  0  0  0  0  0  0  0  0  0
  -32.4982  147.9932   79.3176 C   0  0  0  0  0  0  0  0  0  0  0  0
  -32.8461  149.2484   79.7648 C   0  0  0  0  0  0  0  0  0  0  0  0
  -34.5581  148.0118   76.1372 C   0  0  0  0  0  0  0  0  0  0  0  0
  -35.2121  150.1301   76.8287 C   0  0  2  0  0  0  0  0  0  0  0  0
  -36.5512  150.3078   77.5023 C   0  0  0  0  0  0  0  0  0  0  0  0
  -37.6652  150.0525   76.5059 C   0  0  0  0  0  0  0  0  0  0  0  0
  -37.2344  150.3889   75.0897 C   0  0  0  0  0  0  0  0  0  0  0  0
  -36.1716  149.4075   74.6441 C   0  0  0  0  0  0  0  0  0  0  0  0
  -37.0236  157.9353   81.0412 C   0  0  0  0  0  0  0  0  0  0  0  0
  -44.9264  165.7216   82.0740 N   0  0  0  0  0  0  0  0  0  0  0  0
  -41.9439  163.1075   83.2316 N   0  0  0  0  0  0  0  0  0  0  0  0
  -39.2757  160.9323   82.3707 N   0  0  0  0  0  0  0  0  0  0  0  0
  -39.6916  159.9297   81.6111 N   0  0  0  0  0  0  0  0  0  0  0  0
  -39.0105  158.8255   81.8670 N   0  0  0  0  0  0  0  0  0  0  0  0
  -33.1191  154.9657   79.7699 N   0  0  0  0  0  0  0  0  0  0  0  0
  -33.5275  153.0507   81.1455 N   0  0  0  0  0  0  0  0  0  0  0  0
  -34.0877  151.2822   79.4741 N   0  0  0  0  0  0  0  0  0  0  0  0
  -35.3426  149.1449   75.7951 N   0  0  0  0  0  0  0  0  0  0  0  0
  -36.5131  157.4459   82.3078 N   0  0  2  0  0  4  0  0  0  0  0  0
  -31.9283  152.1552   79.7818 O   0  0  0  0  0  0  0  0  0  0  0  0
  -34.4818  146.9611   75.4237 O   0  0  0  0  0  0  0  0  0  0  0  0
  1  2  2  0
  6  1  1  0
  2  3  1  0
  4  3  2  0
  5  4  1  0
  6  5  2  0
  5 39  1  0
  7  6  1  0
  7  8  2  0
 40  7  1  0
  8  9  1  0
  8 13  1  0
  9 10  1  0
  9 39  2  0
 10 11  2  0
 12 11  1  0
 13 12  2  0
 15 14  1  0
 14 40  1  0
 41 15  1  0
 16 17  2  0
 18 16  1  0
 16 43  1  0
 17 41  1  0
 48 18  1  0
 20 19  1  0
 19 48  1  0
 20 21  2  0
 24 20  1  0
 22 21  1  0
 44 22  2  0
 23 24  2  0
 23 44  1  0
 45 23  1  0
 25 45  1  0
 46 25  1  0
 25 49  2  0
 26 27  2  0
 26 31  1  0
 26 46  1  0
 27 28  1  0
 27 33  1  0
 28 29  2  0
 28 32  1  0
 29 30  1  0
 30 31  2  0
 32 47  1  0
 32 50  2  0
 33 34  1  1
 33 47  1  0
 34 35  1  0
 35 36  1  0
 36 37  1  0
 37 47  1  0
 48 38  1  6
 41 42  1  0
 42 43  2  0
M  CHG  1  48   1
M  END
$$$$
