
     RDKit          3D

 50 57  0  0  0  0  0  0  0  0999 V2000
  -40.6727  165.6430   82.3443 C   0  0  0  0  0  0  0  0  0  0  0  0
  -40.0942  166.7287   81.7199 C   0  0  0  0  0  0  0  0  0  0  0  0
  -40.8536  167.6036   80.9677 C   0  0  0  0  0  0  0  0  0  0  0  0
  -42.2118  167.3471   80.8672 C   0  0  0  0  0  0  0  0  0  0  0  0
  -42.8090  166.2586   81.4898 C   0  0  0  0  0  0  0  0  0  0  0  0
  -42.0218  165.4080   82.2310 C   0  0  0  0  0  0  0  0  0  0  0  0
  -42.6318  164.3393   82.8369 C   0  0  0  0  0  0  0  0  0  0  0  0
  -43.9843  164.1389   82.6984 C   0  0  0  0  0  0  0  0  0  0  0  0
  -44.7574  165.0132   81.9436 C   0  0  0  0  0  0  0  0  0  0  0  0
  -46.1168  164.8186   81.7989 C   0  0  0  0  0  0  0  0  0  0  0  0
  -46.7594  163.7568   82.3927 C   0  0  0  0  0  0  0  0  0  0  0  0
  -45.9760  162.8832   83.1491 C   0  0  0  0  0  0  0  0  0  0  0  0
  -44.6256  163.0775   83.2920 C   0  0  0  0  0  0  0  0  0  0  0  0
  -40.4295  163.4582   83.5136 C   0  0  0  0  0  0  0  0  0  0  0  0
  -39.7956  162.1814   83.9489 C   0  0  0  0  0  0  0  0  0  0  0  0
  -39.8178  160.2114   80.8616 C   0  0  0  0  0  0  0  0  0  0  0  0
  -39.7890  161.4125   81.5382 C   0  0  0  0  0  0  0  0  0  0  0  0
  -39.8035  159.9653   79.3753 C   0  0  0  0  0  0  0  0  0  0  0  0
  -38.1569  158.5744   80.3134 C   0  0  0  0  0  0  0  0  0  0  0  0
  -37.5755  157.2068   80.3532 C   0  0  0  0  0  0  0  0  0  0  0  0
  -38.4230  156.1226   80.3080 C   0  0  0  0  0  0  0  0  0  0  0  0
  -37.8287  154.8657   80.3425 C   0  0  0  0  0  0  0  0  0  0  0  0
  -35.6461  155.7930   80.4612 C   0  0  0  0  0  0  0  0  0  0  0  0
  -36.2079  157.0534   80.4288 C   0  0  0  0  0  0  0  0  0  0  0  0
  -33.6918  154.2695   80.4605 C   0  0  0  0  0  0  0  0  0  0  0  0
  -33.9111  151.8047   80.4154 C   0  0  0  0  0  0  0  0  0  0  0  0
  -33.7517  150.9894   81.5184 C   0  0  0  0  0  0  0  0  0  0  0  0
  -33.1944  149.7429   81.3141 C   0  0  0  0  0  0  0  0  0  0  0  0
  -32.8014  149.3050   80.0573 C   0  0  0  0  0  0  0  0  0  0  0  0
  -32.9827  150.1569   78.9925 C   0  0  0  0  0  0  0  0  0  0  0  0
  -33.5352  151.4082   79.1520 C   0  0  0  0  0  0  0  0  0  0  0  0
  -33.1503  149.0751   82.6201 C   0  0  0  0  0  0  0  0  0  0  0  0
  -34.0716  151.1763   82.9801 C   0  0  2  0  0  0  0  0  0  0  0  0
  -33.1999  152.2834   83.5213 C   0  0  0  0  0  0  0  0  0  0  0  0
  -32.8045  151.9731   84.9518 C   0  0  0  0  0  0  0  0  0  0  0  0
  -33.8566  151.1310   85.6508 C   0  0  0  0  0  0  0  0  0  0  0  0
  -33.8951  149.7552   85.0209 C   0  0  0  0  0  0  0  0  0  0  0  0
  -38.3639  158.7157   77.9173 C   0  0  0  0  0  0  0  0  0  0  0  0
  -44.1289  166.0569   81.3584 N   0  0  0  0  0  0  0  0  0  0  0  0
  -41.8708  163.4308   83.6107 N   0  0  0  0  0  0  0  0  0  0  0  0
  -39.8155  161.1908   82.8642 N   0  0  0  0  0  0  0  0  0  0  0  0
  -39.8602  159.8747   83.0078 N   0  0  0  0  0  0  0  0  0  0  0  0
  -39.8626  159.2683   81.8327 N   0  0  0  0  0  0  0  0  0  0  0  0
  -36.4791  154.7400   80.4167 N   0  0  0  0  0  0  0  0  0  0  0  0
  -34.2424  155.5816   80.5424 N   0  0  0  0  0  0  0  0  0  0  0  0
  -34.4685  153.0952   80.5822 N   0  0  0  0  0  0  0  0  0  0  0  0
  -33.6920  149.9428   83.6050 N   0  0  0  0  0  0  0  0  0  0  0  0
  -39.0537  158.7439   79.1932 N   0  0  2  0  0  4  0  0  0  0  0  0
  -32.4295  154.2190   80.2671 O   0  0  0  0  0  0  0  0  0  0  0  0
  -32.7068  147.9089   82.8697 O   0  0  0  0  0  0  0  0  0  0  0  0
  1  2  2  0
  6  1  1  0
  2  3  1  0
  4  3  2  0
  5  4  1  0
  6  5  2  0
  5 39  1  0
  7  6  1  0
  7  8  2  0
 40  7  1  0
  8  9  1  0
  8 13  1  0
  9 10  1  0
  9 39  2  0
 10 11  2  0
 12 11  1  0
 13 12  2  0
 15 14  1  0
 14 40  1  0
 41 15  1  0
 16 17  2  0
 18 16  1  0
 16 43  1  0
 17 41  1  0
 48 18  1  0
 20 19  1  0
 19 48  1  0
 20 21  2  0
 24 20  1  0
 22 21  1  0
 44 22  2  0
 23 24  2  0
 23 44  1  0
 45 23  1  0
 25 45  1  0
 46 25  1  0
 25 49  2  0
 26 27  2  0
 26 31  1  0
 26 46  1  0
 27 28  1  0
 27 33  1  0
 28 29  2  0
 28 32  1  0
 29 30  1  0
 30 31  2  0
 32 47  1  0
 32 50  2  0
 33 34  1  1
 33 47  1  0
 34 35  1  0
 35 36  1  0
 36 37  1  0
 37 47  1  0
 48 38  1  6
 41 42  1  0
 42 43  2  0
M  CHG  1  48   1
M  END
$$$$
