
     RDKit          3D

 50 57  0  0  0  0  0  0  0  0999 V2000
  -41.2802  165.4865   82.4036 C   0  0  0  0  0  0  0  0  0  0  0  0
  -40.7835  166.4146   81.5118 C   0  0  0  0  0  0  0  0  0  0  0  0
  -41.5943  166.9745   80.5437 C   0  0  0  0  0  0  0  0  0  0  0  0
  -42.9186  166.5679   80.5060 C   0  0  0  0  0  0  0  0  0  0  0  0
  -43.4335  165.6347   81.3966 C   0  0  0  0  0  0  0  0  0  0  0  0
  -42.5969  165.0979   82.3477 C   0  0  0  0  0  0  0  0  0  0  0  0
  -43.1259  164.1779   83.2168 C   0  0  0  0  0  0  0  0  0  0  0  0
  -44.4484  163.8153   83.1272 C   0  0  0  0  0  0  0  0  0  0  0  0
  -45.2727  164.3726   82.1567 C   0  0  0  0  0  0  0  0  0  0  0  0
  -46.6024  164.0131   82.0595 C   0  0  0  0  0  0  0  0  0  0  0  0
  -47.1640  163.0933   82.9148 C   0  0  0  0  0  0  0  0  0  0  0  0
  -46.3296  162.5381   83.8868 C   0  0  0  0  0  0  0  0  0  0  0  0
  -45.0087  162.8959   83.9822 C   0  0  0  0  0  0  0  0  0  0  0  0
  -41.9495  162.1977   84.0996 C   0  0  0  0  0  0  0  0  0  0  0  0
  -40.5310  162.0000   83.6865 C   0  0  0  0  0  0  0  0  0  0  0  0
  -39.7785  160.7333   80.3337 C   0  0  0  0  0  0  0  0  0  0  0  0
  -39.4616  161.4698   81.4554 C   0  0  0  0  0  0  0  0  0  0  0  0
  -38.9749  160.5399   79.0740 C   0  0  0  0  0  0  0  0  0  0  0  0
  -37.1099  159.1091   79.0961 C   0  0  0  0  0  0  0  0  0  0  0  0
  -36.5916  158.1750   80.1299 C   0  0  0  0  0  0  0  0  0  0  0  0
  -36.7997  158.4718   81.4582 C   0  0  0  0  0  0  0  0  0  0  0  0
  -36.2999  157.5633   82.3851 C   0  0  0  0  0  0  0  0  0  0  0  0
  -35.4371  156.1514   80.6822 C   0  0  0  0  0  0  0  0  0  0  0  0
  -35.9219  157.0354   79.7394 C   0  0  0  0  0  0  0  0  0  0  0  0
  -35.1193  153.7009   80.8685 C   0  0  0  0  0  0  0  0  0  0  0  0
  -34.6760  151.4465   79.9485 C   0  0  0  0  0  0  0  0  0  0  0  0
  -34.2345  150.1807   80.2794 C   0  0  0  0  0  0  0  0  0  0  0  0
  -34.5988  149.1410   79.4474 C   0  0  0  0  0  0  0  0  0  0  0  0
  -35.3779  149.3370   78.3158 C   0  0  0  0  0  0  0  0  0  0  0  0
  -35.7912  150.6181   78.0322 C   0  0  0  0  0  0  0  0  0  0  0  0
  -35.4508  151.6835   78.8358 C   0  0  0  0  0  0  0  0  0  0  0  0
  -34.0277  147.9159   80.0188 C   0  0  0  0  0  0  0  0  0  0  0  0
  -33.3924  149.6586   81.4162 C   0  0  2  0  0  0  0  0  0  0  0  0
  -32.0056  150.2408   81.2890 C   0  0  0  0  0  0  0  0  0  0  0  0
  -30.9770  149.2203   81.7354 C   0  0  0  0  0  0  0  0  0  0  0  0
  -31.5455  148.2758   82.7792 C   0  0  0  0  0  0  0  0  0  0  0  0
  -32.6073  147.4061   82.1409 C   0  0  0  0  0  0  0  0  0  0  0  0
  -39.1351  158.3990   78.0014 C   0  0  0  0  0  0  0  0  0  0  0  0
  -44.7238  165.2760   81.3145 N   0  0  0  0  0  0  0  0  0  0  0  0
  -42.3111  163.5919   84.2147 N   0  0  0  0  0  0  0  0  0  0  0  0
  -40.4548  161.3791   82.3573 N   0  0  0  0  0  0  0  0  0  0  0  0
  -41.3724  160.5998   81.8044 N   0  0  0  0  0  0  0  0  0  0  0  0
  -40.9954  160.2020   80.6010 N   0  0  0  0  0  0  0  0  0  0  0  0
  -35.6439  156.4473   81.9761 N   0  0  0  0  0  0  0  0  0  0  0  0
  -34.7372  154.9646   80.3312 N   0  0  0  0  0  0  0  0  0  0  0  0
  -34.3159  152.5426   80.7687 N   0  0  0  0  0  0  0  0  0  0  0  0
  -33.3192  148.2422   81.2054 N   0  0  0  0  0  0  0  0  0  0  0  0
  -38.5540  159.1580   79.0926 N   0  0  2  0  0  4  0  0  0  0  0  0
  -36.2538  153.6790   81.4565 O   0  0  0  0  0  0  0  0  0  0  0  0
  -34.1292  146.7350   79.5560 O   0  0  0  0  0  0  0  0  0  0  0  0
  1  2  2  0
  6  1  1  0
  2  3  1  0
  4  3  2  0
  5  4  1  0
  6  5  2  0
  5 39  1  0
  7  6  1  0
  7  8  2  0
 40  7  1  0
  8  9  1  0
  8 13  1  0
  9 10  1  0
  9 39  2  0
 10 11  2  0
 12 11  1  0
 13 12  2  0
 15 14  1  0
 14 40  1  0
 41 15  1  0
 16 17  2  0
 18 16  1  0
 16 43  1  0
 17 41  1  0
 48 18  1  0
 20 19  1  0
 19 48  1  0
 20 21  2  0
 24 20  1  0
 22 21  1  0
 44 22  2  0
 23 24  2  0
 23 44  1  0
 45 23  1  0
 25 45  1  0
 46 25  1  0
 25 49  2  0
 26 27  2  0
 26 31  1  0
 26 46  1  0
 27 28  1  0
 27 33  1  0
 28 29  2  0
 28 32  1  0
 29 30  1  0
 30 31  2  0
 32 47  1  0
 32 50  2  0
 33 34  1  6
 33 47  1  0
 34 35  1  0
 35 36  1  0
 36 37  1  0
 37 47  1  0
 48 38  1  6
 41 42  1  0
 42 43  2  0
M  CHG  1  48   1
M  END
$$$$
