
     RDKit          3D

 50 57  0  0  0  0  0  0  0  0999 V2000
  -44.2461  162.8979   83.6648 C   0  0  0  0  0  0  0  0  0  0  0  0
  -45.5816  162.5531   83.6933 C   0  0  0  0  0  0  0  0  0  0  0  0
  -46.5236  163.3028   83.0159 C   0  0  0  0  0  0  0  0  0  0  0  0
  -46.0741  164.4081   82.3111 C   0  0  0  0  0  0  0  0  0  0  0  0
  -44.7332  164.7681   82.2727 C   0  0  0  0  0  0  0  0  0  0  0  0
  -43.8228  163.9983   82.9591 C   0  0  0  0  0  0  0  0  0  0  0  0
  -42.5040  164.3720   82.9081 C   0  0  0  0  0  0  0  0  0  0  0  0
  -42.1214  165.4803   82.1913 C   0  0  0  0  0  0  0  0  0  0  0  0
  -43.0613  166.2415   81.5064 C   0  0  0  0  0  0  0  0  0  0  0  0
  -42.6852  167.3569   80.7844 C   0  0  0  0  0  0  0  0  0  0  0  0
  -41.3715  167.7593   80.7132 C   0  0  0  0  0  0  0  0  0  0  0  0
  -40.4336  166.9895   81.4037 C   0  0  0  0  0  0  0  0  0  0  0  0
  -40.8083  165.8818   82.1207 C   0  0  0  0  0  0  0  0  0  0  0  0
  -41.3683  162.2153   83.2862 C   0  0  0  0  0  0  0  0  0  0  0  0
  -39.9826  161.8667   82.8619 C   0  0  0  0  0  0  0  0  0  0  0  0
  -39.7444  158.2286   83.2078 C   0  0  0  0  0  0  0  0  0  0  0  0
  -39.9984  159.4849   83.7160 C   0  0  0  0  0  0  0  0  0  0  0  0
  -39.8171  156.8958   83.9067 C   0  0  0  0  0  0  0  0  0  0  0  0
  -39.9957  155.0965   82.4045 C   0  0  0  0  0  0  0  0  0  0  0  0
  -39.3307  154.3111   81.3318 C   0  0  0  0  0  0  0  0  0  0  0  0
  -39.5958  152.9636   81.2328 C   0  0  0  0  0  0  0  0  0  0  0  0
  -38.9528  152.2758   80.2092 C   0  0  0  0  0  0  0  0  0  0  0  0
  -37.8475  154.2367   79.4536 C   0  0  0  0  0  0  0  0  0  0  0  0
  -38.4715  154.9453   80.4605 C   0  0  0  0  0  0  0  0  0  0  0  0
  -35.6528  154.2995   78.3047 C   0  0  0  0  0  0  0  0  0  0  0  0
  -33.2561  154.6829   77.8212 C   0  0  0  0  0  0  0  0  0  0  0  0
  -32.0599  154.8161   78.4981 C   0  0  0  0  0  0  0  0  0  0  0  0
  -30.9056  154.4639   77.8275 C   0  0  0  0  0  0  0  0  0  0  0  0
  -30.9226  153.9922   76.5225 C   0  0  0  0  0  0  0  0  0  0  0  0
  -32.1412  153.8786   75.8945 C   0  0  0  0  0  0  0  0  0  0  0  0
  -33.3165  154.2183   76.5269 C   0  0  0  0  0  0  0  0  0  0  0  0
  -29.7897  154.6771   78.7564 C   0  0  0  0  0  0  0  0  0  0  0  0
  -31.7220  155.2906   79.8890 C   0  0  2  0  0  0  0  0  0  0  0  0
  -32.0846  156.7520   79.9957 C   0  0  0  0  0  0  0  0  0  0  0  0
  -31.0807  157.4672   80.8785 C   0  0  0  0  0  0  0  0  0  0  0  0
  -30.4854  156.5325   81.9161 C   0  0  0  0  0  0  0  0  0  0  0  0
  -29.6256  155.4979   81.2222 C   0  0  0  0  0  0  0  0  0  0  0  0
  -38.0584  155.2648   83.8268 C   0  0  0  0  0  0  0  0  0  0  0  0
  -44.3529  165.8492   81.5749 N   0  0  0  0  0  0  0  0  0  0  0  0
  -41.5240  163.6178   83.5965 N   0  0  0  0  0  0  0  0  0  0  0  0
  -39.8179  160.4106   82.7576 N   0  0  0  0  0  0  0  0  0  0  0  0
  -39.4578  159.7400   81.6733 N   0  0  0  0  0  0  0  0  0  0  0  0
  -39.4063  158.4407   81.9135 N   0  0  0  0  0  0  0  0  0  0  0  0
  -38.1110  152.9226   79.3630 N   0  0  0  0  0  0  0  0  0  0  0  0
  -36.9505  154.8434   78.5321 N   0  0  0  0  0  0  0  0  0  0  0  0
  -34.4624  155.0433   78.4682 N   0  0  0  0  0  0  0  0  0  0  0  0
  -30.2978  155.1599   79.9913 N   0  0  0  0  0  0  0  0  0  0  0  0
  -39.0703  155.9816   83.0738 N   0  0  2  0  0  4  0  0  0  0  0  0
  -35.6312  153.0758   77.9368 O   0  0  0  0  0  0  0  0  0  0  0  0
  -28.5543  154.4737   78.5293 O   0  0  0  0  0  0  0  0  0  0  0  0
  1  2  2  0
  6  1  1  0
  2  3  1  0
  4  3  2  0
  5  4  1  0
  6  5  2  0
  5 39  1  0
  7  6  1  0
  7  8  2  0
 40  7  1  0
  8  9  1  0
  8 13  1  0
  9 10  1  0
  9 39  2  0
 10 11  2  0
 12 11  1  0
 13 12  2  0
 15 14  1  0
 14 40  1  0
 41 15  1  0
 16 17  2  0
 18 16  1  0
 16 43  1  0
 17 41  1  0
 48 18  1  0
 20 19  1  0
 19 48  1  0
 20 21  2  0
 24 20  1  0
 22 21  1  0
 44 22  2  0
 23 24  2  0
 23 44  1  0
 45 23  1  0
 25 45  1  0
 46 25  1  0
 25 49  2  0
 26 27  2  0
 26 31  1  0
 26 46  1  0
 27 28  1  0
 27 33  1  0
 28 29  2  0
 28 32  1  0
 29 30  1  0
 30 31  2  0
 32 47  1  0
 32 50  2  0
 33 34  1  6
 33 47  1  0
 34 35  1  0
 35 36  1  0
 36 37  1  0
 37 47  1  0
 48 38  1  1
 41 42  1  0
 42 43  2  0
M  CHG  1  48   1
M  END
$$$$
