
     RDKit          3D

 50 57  0  0  0  0  0  0  0  0999 V2000
  -43.9413  161.9192   84.5441 C   0  0  0  0  0  0  0  0  0  0  0  0
  -45.0357  161.3377   85.1503 C   0  0  0  0  0  0  0  0  0  0  0  0
  -46.3137  161.8009   84.9044 C   0  0  0  0  0  0  0  0  0  0  0  0
  -46.4496  162.8668   84.0293 C   0  0  0  0  0  0  0  0  0  0  0  0
  -45.3579  163.4628   83.4113 C   0  0  0  0  0  0  0  0  0  0  0  0
  -44.0997  162.9754   83.6796 C   0  0  0  0  0  0  0  0  0  0  0  0
  -43.0358  163.5789   83.0590 C   0  0  0  0  0  0  0  0  0  0  0  0
  -43.2365  164.6337   82.2012 C   0  0  0  0  0  0  0  0  0  0  0  0
  -44.5183  165.1074   81.9471 C   0  0  0  0  0  0  0  0  0  0  0  0
  -44.7285  166.1671   81.0871 C   0  0  0  0  0  0  0  0  0  0  0  0
  -43.6836  166.7950   80.4491 C   0  0  0  0  0  0  0  0  0  0  0  0
  -42.3994  166.3132   80.7095 C   0  0  0  0  0  0  0  0  0  0  0  0
  -42.1918  165.2605   81.5641 C   0  0  0  0  0  0  0  0  0  0  0  0
  -41.1586  162.1045   82.4368 C   0  0  0  0  0  0  0  0  0  0  0  0
  -39.6732  162.0221   82.5286 C   0  0  0  0  0  0  0  0  0  0  0  0
  -38.1683  159.5988   84.8254 C   0  0  0  0  0  0  0  0  0  0  0  0
  -38.1881  160.8217   84.1889 C   0  0  0  0  0  0  0  0  0  0  0  0
  -37.1625  159.0650   85.8120 C   0  0  0  0  0  0  0  0  0  0  0  0
  -37.9058  157.0576   84.8406 C   0  0  0  0  0  0  0  0  0  0  0  0
  -37.6835  156.4075   83.5224 C   0  0  0  0  0  0  0  0  0  0  0  0
  -38.1492  157.0312   82.3866 C   0  0  0  0  0  0  0  0  0  0  0  0
  -37.9109  156.3845   81.1786 C   0  0  0  0  0  0  0  0  0  0  0  0
  -36.7928  154.5849   82.2505 C   0  0  0  0  0  0  0  0  0  0  0  0
  -37.0152  155.2035   83.4642 C   0  0  0  0  0  0  0  0  0  0  0  0
  -34.9954  153.1928   81.2645 C   0  0  0  0  0  0  0  0  0  0  0  0
  -34.5017  153.5939   78.8727 C   0  0  0  0  0  0  0  0  0  0  0  0
  -34.8697  154.3769   77.7964 C   0  0  0  0  0  0  0  0  0  0  0  0
  -34.6358  153.8732   76.5325 C   0  0  0  0  0  0  0  0  0  0  0  0
  -34.0549  152.6297   76.3273 C   0  0  0  0  0  0  0  0  0  0  0  0
  -33.7072  151.8906   77.4342 C   0  0  0  0  0  0  0  0  0  0  0  0
  -33.9224  152.3557   78.7125 C   0  0  0  0  0  0  0  0  0  0  0  0
  -35.0925  154.8884   75.5765 C   0  0  0  0  0  0  0  0  0  0  0  0
  -35.5084  155.7392   77.6969 C   0  0  2  0  0  0  0  0  0  0  0  0
  -36.9034  155.6548   78.2674 C   0  0  0  0  0  0  0  0  0  0  0  0
  -37.8340  156.5607   77.4850 C   0  0  0  0  0  0  0  0  0  0  0  0
  -37.0922  157.7469   76.8959 C   0  0  0  0  0  0  0  0  0  0  0  0
  -36.1403  157.2594   75.8247 C   0  0  0  0  0  0  0  0  0  0  0  0
  -35.9407  157.0430   86.2344 C   0  0  0  0  0  0  0  0  0  0  0  0
  -45.5468  164.4931   82.5729 N   0  0  0  0  0  0  0  0  0  0  0  0
  -41.7186  163.1199   83.2989 N   0  0  0  0  0  0  0  0  0  0  0  0
  -39.2632  160.9012   83.3852 N   0  0  0  0  0  0  0  0  0  0  0  0
  -39.8994  159.7471   83.5205 N   0  0  0  0  0  0  0  0  0  0  0  0
  -39.2696  158.9544   84.3712 N   0  0  0  0  0  0  0  0  0  0  0  0
  -37.2499  155.1992   81.1467 N   0  0  0  0  0  0  0  0  0  0  0  0
  -36.1123  153.3416   82.1374 N   0  0  0  0  0  0  0  0  0  0  0  0
  -34.7339  154.0680   80.1862 N   0  0  0  0  0  0  0  0  0  0  0  0
  -35.6003  156.0056   76.2910 N   0  0  0  0  0  0  0  0  0  0  0  0
  -36.7404  157.7893   85.2814 N   0  0  2  0  0  4  0  0  0  0  0  0
  -34.2311  152.2012   81.5211 O   0  0  0  0  0  0  0  0  0  0  0  0
  -35.0559  154.8165   74.3066 O   0  0  0  0  0  0  0  0  0  0  0  0
  1  2  2  0
  6  1  1  0
  2  3  1  0
  4  3  2  0
  5  4  1  0
  6  5  2  0
  5 39  1  0
  7  6  1  0
  7  8  2  0
 40  7  1  0
  8  9  1  0
  8 13  1  0
  9 10  1  0
  9 39  2  0
 10 11  2  0
 12 11  1  0
 13 12  2  0
 15 14  1  0
 14 40  1  0
 41 15  1  0
 16 17  2  0
 18 16  1  0
 16 43  1  0
 17 41  1  0
 48 18  1  0
 20 19  1  0
 19 48  1  0
 20 21  2  0
 24 20  1  0
 22 21  1  0
 44 22  2  0
 23 24  2  0
 23 44  1  0
 45 23  1  0
 25 45  1  0
 46 25  1  0
 25 49  2  0
 26 27  2  0
 26 31  1  0
 26 46  1  0
 27 28  1  0
 27 33  1  0
 28 29  2  0
 28 32  1  0
 29 30  1  0
 30 31  2  0
 32 47  1  0
 32 50  2  0
 33 34  1  6
 33 47  1  0
 34 35  1  0
 35 36  1  0
 36 37  1  0
 37 47  1  0
 48 38  1  1
 41 42  1  0
 42 43  2  0
M  CHG  1  48   1
M  END
$$$$
