
     RDKit          3D

 50 57  0  0  0  0  0  0  0  0999 V2000
  -44.4177  164.3392   83.3989 C   0  0  0  0  0  0  0  0  0  0  0  0
  -45.7427  164.0040   83.2108 C   0  0  0  0  0  0  0  0  0  0  0  0
  -46.4124  164.3723   82.0601 C   0  0  0  0  0  0  0  0  0  0  0  0
  -45.7024  165.0876   81.1089 C   0  0  0  0  0  0  0  0  0  0  0  0
  -44.3684  165.4326   81.2835 C   0  0  0  0  0  0  0  0  0  0  0  0
  -43.7333  165.0491   82.4421 C   0  0  0  0  0  0  0  0  0  0  0  0
  -42.4162  165.4006   82.5942 C   0  0  0  0  0  0  0  0  0  0  0  0
  -41.7674  166.1119   81.6134 C   0  0  0  0  0  0  0  0  0  0  0  0
  -42.4321  166.4875   80.4520 C   0  0  0  0  0  0  0  0  0  0  0  0
  -41.7877  167.2028   79.4621 C   0  0  0  0  0  0  0  0  0  0  0  0
  -40.4678  167.5716   79.5835 C   0  0  0  0  0  0  0  0  0  0  0  0
  -39.8072  167.1906   80.7529 C   0  0  0  0  0  0  0  0  0  0  0  0
  -40.4484  166.4801   81.7356 C   0  0  0  0  0  0  0  0  0  0  0  0
  -42.1292  163.8601   84.4992 C   0  0  0  0  0  0  0  0  0  0  0  0
  -41.0111  162.9063   84.7477 C   0  0  0  0  0  0  0  0  0  0  0  0
  -40.5307  160.0513   82.5049 C   0  0  0  0  0  0  0  0  0  0  0  0
  -40.0545  161.0047   83.3797 C   0  0  0  0  0  0  0  0  0  0  0  0
  -39.7690  158.9739   81.7775 C   0  0  0  0  0  0  0  0  0  0  0  0
  -39.3053  156.8604   82.6963 C   0  0  0  0  0  0  0  0  0  0  0  0
  -38.8522  156.2973   81.3973 C   0  0  0  0  0  0  0  0  0  0  0  0
  -39.6137  156.5239   80.2727 C   0  0  0  0  0  0  0  0  0  0  0  0
  -39.1434  155.9804   79.0821 C   0  0  0  0  0  0  0  0  0  0  0  0
  -37.2410  155.0414   80.1485 C   0  0  0  0  0  0  0  0  0  0  0  0
  -37.6835  155.5687   81.3449 C   0  0  0  0  0  0  0  0  0  0  0  0
  -35.8480  153.3688   78.9642 C   0  0  0  0  0  0  0  0  0  0  0  0
  -34.2488  151.5985   79.6231 C   0  0  0  0  0  0  0  0  0  0  0  0
  -33.3496  151.0346   78.7397 C   0  0  0  0  0  0  0  0  0  0  0  0
  -32.1256  150.6397   79.2417 C   0  0  0  0  0  0  0  0  0  0  0  0
  -31.7901  150.7933   80.5794 C   0  0  0  0  0  0  0  0  0  0  0  0
  -32.7225  151.3611   81.4164 C   0  0  0  0  0  0  0  0  0  0  0  0
  -33.9549  151.7693   80.9568 C   0  0  0  0  0  0  0  0  0  0  0  0
  -31.3571  150.0963   78.1159 C   0  0  0  0  0  0  0  0  0  0  0  0
  -33.4192  150.7390   77.2627 C   0  0  2  0  0  0  0  0  0  0  0  0
  -34.4840  149.6936   77.0350 C   0  0  0  0  0  0  0  0  0  0  0  0
  -34.0635  148.7688   75.9096 C   0  0  0  0  0  0  0  0  0  0  0  0
  -33.1642  149.4770   74.9125 C   0  0  0  0  0  0  0  0  0  0  0  0
  -31.8422  149.8017   75.5744 C   0  0  0  0  0  0  0  0  0  0  0  0
  -39.2846  158.8026   84.1217 C   0  0  0  0  0  0  0  0  0  0  0  0
  -43.7291  166.1272   80.3301 N   0  0  0  0  0  0  0  0  0  0  0  0
  -41.7131  165.0339   83.7665 N   0  0  0  0  0  0  0  0  0  0  0  0
  -41.0675  161.7778   83.8088 N   0  0  0  0  0  0  0  0  0  0  0  0
  -42.1536  161.3122   83.2102 N   0  0  0  0  0  0  0  0  0  0  0  0
  -41.8625  160.2855   82.4292 N   0  0  0  0  0  0  0  0  0  0  0  0
  -37.9890  155.2666   79.0555 N   0  0  0  0  0  0  0  0  0  0  0  0
  -36.0448  154.2801   80.0424 N   0  0  0  0  0  0  0  0  0  0  0  0
  -35.5196  152.0072   79.1520 N   0  0  0  0  0  0  0  0  0  0  0  0
  -32.1419  150.1756   76.9351 N   0  0  0  0  0  0  0  0  0  0  0  0
  -39.0219  158.2737   82.7967 N   0  0  2  0  0  4  0  0  0  0  0  0
  -35.9888  153.8675   77.7961 O   0  0  0  0  0  0  0  0  0  0  0  0
  -30.1768  149.6223   78.1517 O   0  0  0  0  0  0  0  0  0  0  0  0
  1  2  2  0
  6  1  1  0
  2  3  1  0
  4  3  2  0
  5  4  1  0
  6  5  2  0
  5 39  1  0
  7  6  1  0
  7  8  2  0
 40  7  1  0
  8  9  1  0
  8 13  1  0
  9 10  1  0
  9 39  2  0
 10 11  2  0
 12 11  1  0
 13 12  2  0
 15 14  1  0
 14 40  1  0
 41 15  1  0
 16 17  2  0
 18 16  1  0
 16 43  1  0
 17 41  1  0
 48 18  1  0
 20 19  1  0
 19 48  1  0
 20 21  2  0
 24 20  1  0
 22 21  1  0
 44 22  2  0
 23 24  2  0
 23 44  1  0
 45 23  1  0
 25 45  1  0
 46 25  1  0
 25 49  2  0
 26 27  2  0
 26 31  1  0
 26 46  1  0
 27 28  1  0
 27 33  1  0
 28 29  2  0
 28 32  1  0
 29 30  1  0
 30 31  2  0
 32 47  1  0
 32 50  2  0
 33 34  1  1
 33 47  1  0
 34 35  1  0
 35 36  1  0
 36 37  1  0
 37 47  1  0
 48 38  1  1
 41 42  1  0
 42 43  2  0
M  CHG  1  48   1
M  END
$$$$
