
     RDKit          3D

 50 57  0  0  0  0  0  0  0  0999 V2000
  -40.7508  165.6708   82.3956 C   0  0  0  0  0  0  0  0  0  0  0  0
  -40.3211  166.7551   81.6586 C   0  0  0  0  0  0  0  0  0  0  0  0
  -41.2216  167.5625   80.9914 C   0  0  0  0  0  0  0  0  0  0  0  0
  -42.5657  167.2403   81.0926 C   0  0  0  0  0  0  0  0  0  0  0  0
  -43.0139  166.1523   81.8305 C   0  0  0  0  0  0  0  0  0  0  0  0
  -42.0887  165.3699   82.4820 C   0  0  0  0  0  0  0  0  0  0  0  0
  -42.5530  164.3004   83.2045 C   0  0  0  0  0  0  0  0  0  0  0  0
  -43.8996  164.0328   83.2653 C   0  0  0  0  0  0  0  0  0  0  0  0
  -44.8139  164.8389   82.5975 C   0  0  0  0  0  0  0  0  0  0  0  0
  -46.1685  164.5765   82.6530 C   0  0  0  0  0  0  0  0  0  0  0  0
  -46.6671  163.5119   83.3678 C   0  0  0  0  0  0  0  0  0  0  0  0
  -45.7423  162.7071   84.0358 C   0  0  0  0  0  0  0  0  0  0  0  0
  -44.3969  162.9686   83.9798 C   0  0  0  0  0  0  0  0  0  0  0  0
  -41.7386  162.0293   83.7176 C   0  0  0  0  0  0  0  0  0  0  0  0
  -40.4181  161.3464   83.8255 C   0  0  0  0  0  0  0  0  0  0  0  0
  -40.0846  159.4740   80.6958 C   0  0  0  0  0  0  0  0  0  0  0  0
  -40.3558  160.6279   81.4001 C   0  0  0  0  0  0  0  0  0  0  0  0
  -40.1019  159.2522   79.2056 C   0  0  0  0  0  0  0  0  0  0  0  0
  -38.0132  158.6048   78.3429 C   0  0  0  0  0  0  0  0  0  0  0  0
  -37.0183  157.5148   78.1649 C   0  0  0  0  0  0  0  0  0  0  0  0
  -37.1502  156.6632   77.0909 C   0  0  0  0  0  0  0  0  0  0  0  0
  -36.1908  155.6641   76.9667 C   0  0  0  0  0  0  0  0  0  0  0  0
  -35.0494  156.3815   78.9212 C   0  0  0  0  0  0  0  0  0  0  0  0
  -35.9876  157.3829   79.0703 C   0  0  0  0  0  0  0  0  0  0  0  0
  -33.4844  154.8984   80.1427 C   0  0  0  0  0  0  0  0  0  0  0  0
  -33.8948  152.4676   80.3614 C   0  0  0  0  0  0  0  0  0  0  0  0
  -33.8307  151.6968   81.5053 C   0  0  0  0  0  0  0  0  0  0  0  0
  -33.3895  150.3953   81.3729 C   0  0  0  0  0  0  0  0  0  0  0  0
  -33.0186  149.8609   80.1470 C   0  0  0  0  0  0  0  0  0  0  0  0
  -33.1016  150.6720   79.0390 C   0  0  0  0  0  0  0  0  0  0  0  0
  -33.5369  151.9756   79.1267 C   0  0  0  0  0  0  0  0  0  0  0  0
  -33.4297  149.7921   82.7100 C   0  0  0  0  0  0  0  0  0  0  0  0
  -34.1557  151.9850   82.9493 C   0  0  2  0  0  0  0  0  0  0  0  0
  -33.1931  153.0320   83.4551 C   0  0  0  0  0  0  0  0  0  0  0  0
  -32.8522  152.7578   84.9068 C   0  0  0  0  0  0  0  0  0  0  0  0
  -33.9900  152.0529   85.6231 C   0  0  0  0  0  0  0  0  0  0  0  0
  -34.1470  150.6569   85.0592 C   0  0  0  0  0  0  0  0  0  0  0  0
  -39.8746  157.0813   78.2083 C   0  0  0  0  0  0  0  0  0  0  0  0
  -44.3272  165.8852   81.8938 N   0  0  0  0  0  0  0  0  0  0  0  0
  -41.6462  163.4604   83.8940 N   0  0  0  0  0  0  0  0  0  0  0  0
  -40.2268  160.3993   82.7189 N   0  0  0  0  0  0  0  0  0  0  0  0
  -39.8817  159.1252   82.8308 N   0  0  0  0  0  0  0  0  0  0  0  0
  -39.7902  158.5516   81.6429 N   0  0  0  0  0  0  0  0  0  0  0  0
  -35.1844  155.5546   77.8711 N   0  0  0  0  0  0  0  0  0  0  0  0
  -33.9702  156.2012   79.8292 N   0  0  0  0  0  0  0  0  0  0  0  0
  -34.3313  153.8109   80.4544 N   0  0  0  0  0  0  0  0  0  0  0  0
  -33.9038  150.7542   83.6406 N   0  0  0  0  0  0  0  0  0  0  0  0
  -39.2238  158.1290   78.9721 N   0  0  2  0  0  4  0  0  0  0  0  0
  -32.2128  154.7716   80.1246 O   0  0  0  0  0  0  0  0  0  0  0  0
  -33.1017  148.6036   83.0245 O   0  0  0  0  0  0  0  0  0  0  0  0
  1  2  2  0
  6  1  1  0
  2  3  1  0
  4  3  2  0
  5  4  1  0
  6  5  2  0
  5 39  1  0
  7  6  1  0
  7  8  2  0
 40  7  1  0
  8  9  1  0
  8 13  1  0
  9 10  1  0
  9 39  2  0
 10 11  2  0
 12 11  1  0
 13 12  2  0
 15 14  1  0
 14 40  1  0
 41 15  1  0
 16 17  2  0
 18 16  1  0
 16 43  1  0
 17 41  1  0
 48 18  1  0
 20 19  1  0
 19 48  1  0
 20 21  2  0
 24 20  1  0
 22 21  1  0
 44 22  2  0
 23 24  2  0
 23 44  1  0
 45 23  1  0
 25 45  1  0
 46 25  1  0
 25 49  2  0
 26 27  2  0
 26 31  1  0
 26 46  1  0
 27 28  1  0
 27 33  1  0
 28 29  2  0
 28 32  1  0
 29 30  1  0
 30 31  2  0
 32 47  1  0
 32 50  2  0
 33 34  1  1
 33 47  1  0
 34 35  1  0
 35 36  1  0
 36 37  1  0
 37 47  1  0
 48 38  1  6
 41 42  1  0
 42 43  2  0
M  CHG  1  48   1
M  END
$$$$
