
     RDKit          3D

 50 57  0  0  0  0  0  0  0  0999 V2000
  -44.8344  163.0572   82.9657 C   0  0  0  0  0  0  0  0  0  0  0  0
  -46.1784  162.9290   83.2498 C   0  0  0  0  0  0  0  0  0  0  0  0
  -46.9864  162.0954   82.5012 C   0  0  0  0  0  0  0  0  0  0  0  0
  -46.3947  161.3978   81.4602 C   0  0  0  0  0  0  0  0  0  0  0  0
  -45.0434  161.5162   81.1618 C   0  0  0  0  0  0  0  0  0  0  0  0
  -44.2688  162.3557   81.9284 C   0  0  0  0  0  0  0  0  0  0  0  0
  -42.9371  162.4579   81.6161 C   0  0  0  0  0  0  0  0  0  0  0  0
  -42.4099  161.7396   80.5698 C   0  0  0  0  0  0  0  0  0  0  0  0
  -43.2144  160.8983   79.8103 C   0  0  0  0  0  0  0  0  0  0  0  0
  -42.6927  160.1736   78.7570 C   0  0  0  0  0  0  0  0  0  0  0  0
  -41.3619  160.2537   78.4171 C   0  0  0  0  0  0  0  0  0  0  0  0
  -40.5606  161.1009   79.1847 C   0  0  0  0  0  0  0  0  0  0  0  0
  -41.0800  161.8203   80.2308 C   0  0  0  0  0  0  0  0  0  0  0  0
  -41.5007  162.8095   83.5903 C   0  0  0  0  0  0  0  0  0  0  0  0
  -40.0112  162.8630   83.5746 C   0  0  0  0  0  0  0  0  0  0  0  0
  -38.1845  159.9222   82.3800 C   0  0  0  0  0  0  0  0  0  0  0  0
  -38.3967  161.2835   82.4338 C   0  0  0  0  0  0  0  0  0  0  0  0
  -37.1313  159.1610   81.6175 C   0  0  0  0  0  0  0  0  0  0  0  0
  -37.0708  157.3234   83.0822 C   0  0  0  0  0  0  0  0  0  0  0  0
  -36.2842  156.0635   83.0210 C   0  0  0  0  0  0  0  0  0  0  0  0
  -35.7481  155.5574   84.1840 C   0  0  0  0  0  0  0  0  0  0  0  0
  -35.0258  154.3741   84.0735 C   0  0  0  0  0  0  0  0  0  0  0  0
  -35.3914  154.2552   81.7304 C   0  0  0  0  0  0  0  0  0  0  0  0
  -36.1132  155.4290   81.8095 C   0  0  0  0  0  0  0  0  0  0  0  0
  -34.5577  152.2841   80.4811 C   0  0  0  0  0  0  0  0  0  0  0  0
  -33.7889  150.4227   79.0427 C   0  0  0  0  0  0  0  0  0  0  0  0
  -33.7029  150.0462   77.7169 C   0  0  0  0  0  0  0  0  0  0  0  0
  -33.6763  148.6942   77.4389 C   0  0  0  0  0  0  0  0  0  0  0  0
  -33.7332  147.7321   78.4374 C   0  0  0  0  0  0  0  0  0  0  0  0
  -33.8179  148.1615   79.7416 C   0  0  0  0  0  0  0  0  0  0  0  0
  -33.8466  149.5004   80.0629 C   0  0  0  0  0  0  0  0  0  0  0  0
  -33.5658  148.5596   75.9818 C   0  0  0  0  0  0  0  0  0  0  0  0
  -33.6286  150.8364   76.4347 C   0  0  2  0  0  0  0  0  0  0  0  0
  -34.9255  151.5894   76.2627 C   0  0  0  0  0  0  0  0  0  0  0  0
  -35.2923  151.6515   74.7928 C   0  0  0  0  0  0  0  0  0  0  0  0
  -34.0586  151.6206   73.9087 C   0  0  0  0  0  0  0  0  0  0  0  0
  -33.3982  150.2631   74.0194 C   0  0  0  0  0  0  0  0  0  0  0  0
  -36.9183  156.9509   80.7068 C   0  0  0  0  0  0  0  0  0  0  0  0
  -44.5224  160.8179   80.1414 N   0  0  0  0  0  0  0  0  0  0  0  0
  -42.0930  163.3076   82.3702 N   0  0  0  0  0  0  0  0  0  0  0  0
  -39.4441  161.5515   83.2334 N   0  0  0  0  0  0  0  0  0  0  0  0
  -39.8744  160.3764   83.6681 N   0  0  0  0  0  0  0  0  0  0  0  0
  -39.1430  159.3908   83.1758 N   0  0  0  0  0  0  0  0  0  0  0  0
  -34.8714  153.7673   82.8689 N   0  0  0  0  0  0  0  0  0  0  0  0
  -35.1834  153.5646   80.5050 N   0  0  0  0  0  0  0  0  0  0  0  0
  -33.8300  151.7990   79.3711 N   0  0  0  0  0  0  0  0  0  0  0  0
  -33.5250  149.8527   75.3966 N   0  0  0  0  0  0  0  0  0  0  0  0
  -37.4773  157.7665   81.7683 N   0  0  2  0  0  4  0  0  0  0  0  0
  -34.6978  151.5889   81.5442 O   0  0  0  0  0  0  0  0  0  0  0  0
  -33.5121  147.4776   75.3143 O   0  0  0  0  0  0  0  0  0  0  0  0
  1  2  2  0
  6  1  1  0
  2  3  1  0
  4  3  2  0
  5  4  1  0
  6  5  2  0
  5 39  1  0
  7  6  1  0
  7  8  2  0
 40  7  1  0
  8  9  1  0
  8 13  1  0
  9 10  1  0
  9 39  2  0
 10 11  2  0
 12 11  1  0
 13 12  2  0
 15 14  1  0
 14 40  1  0
 41 15  1  0
 16 17  2  0
 18 16  1  0
 16 43  1  0
 17 41  1  0
 48 18  1  0
 20 19  1  0
 19 48  1  0
 20 21  2  0
 24 20  1  0
 22 21  1  0
 44 22  2  0
 23 24  2  0
 23 44  1  0
 45 23  1  0
 25 45  1  0
 46 25  1  0
 25 49  2  0
 26 27  2  0
 26 31  1  0
 26 46  1  0
 27 28  1  0
 27 33  1  0
 28 29  2  0
 28 32  1  0
 29 30  1  0
 30 31  2  0
 32 47  1  0
 32 50  2  0
 33 34  1  6
 33 47  1  0
 34 35  1  0
 35 36  1  0
 36 37  1  0
 37 47  1  0
 48 38  1  6
 41 42  1  0
 42 43  2  0
M  CHG  1  48   1
M  END
$$$$
