
     RDKit          3D

 50 57  0  0  0  0  0  0  0  0999 V2000
  -33.2501  153.1484   83.8890 C   0  0  0  0  0  0  0  0  0  0  0  0
  -33.0761  151.9758   84.5947 C   0  0  0  0  0  0  0  0  0  0  0  0
  -34.1596  151.2085   84.9759 C   0  0  0  0  0  0  0  0  0  0  0  0
  -35.4202  151.6626   84.6221 C   0  0  0  0  0  0  0  0  0  0  0  0
  -35.6118  152.8407   83.9119 C   0  0  0  0  0  0  0  0  0  0  0  0
  -34.5096  153.5797   83.5488 C   0  0  0  0  0  0  0  0  0  0  0  0
  -34.7215  154.7398   82.8484 C   0  0  0  0  0  0  0  0  0  0  0  0
  -35.9976  155.1368   82.5282 C   0  0  0  0  0  0  0  0  0  0  0  0
  -37.0946  154.3721   82.9071 C   0  0  0  0  0  0  0  0  0  0  0  0
  -38.3801  154.7643   82.5899 C   0  0  0  0  0  0  0  0  0  0  0  0
  -38.6274  155.9222   81.8892 C   0  0  0  0  0  0  0  0  0  0  0  0
  -37.5203  156.6847   81.5122 C   0  0  0  0  0  0  0  0  0  0  0  0
  -36.2438  156.2941   81.8280 C   0  0  0  0  0  0  0  0  0  0  0  0
  -32.8348  155.1360   81.3097 C   0  0  0  0  0  0  0  0  0  0  0  0
  -33.6682  154.6873   80.1582 C   0  0  0  0  0  0  0  0  0  0  0  0
  -35.2397  157.1910   77.9963 C   0  0  0  0  0  0  0  0  0  0  0  0
  -35.2129  155.9543   78.6054 C   0  0  0  0  0  0  0  0  0  0  0  0
  -36.2878  157.7695   77.0815 C   0  0  0  0  0  0  0  0  0  0  0  0
  -37.7026  159.6346   77.2957 C   0  0  0  0  0  0  0  0  0  0  0  0
  -37.8671  161.0078   77.8407 C   0  0  0  0  0  0  0  0  0  0  0  0
  -36.8362  161.9089   77.6946 C   0  0  0  0  0  0  0  0  0  0  0  0
  -37.0425  163.1812   78.2170 C   0  0  0  0  0  0  0  0  0  0  0  0
  -39.2197  162.6211   78.9811 C   0  0  0  0  0  0  0  0  0  0  0  0
  -39.0431  161.3501   78.4726 C   0  0  0  0  0  0  0  0  0  0  0  0
  -40.7028  162.5748   80.9658 C   0  0  0  0  0  0  0  0  0  0  0  0
  -42.2812  161.9125   82.7533 C   0  0  0  0  0  0  0  0  0  0  0  0
  -43.5918  161.8073   83.1753 C   0  0  0  0  0  0  0  0  0  0  0  0
  -43.8109  161.4453   84.4895 C   0  0  0  0  0  0  0  0  0  0  0  0
  -42.7692  161.1926   85.3709 C   0  0  0  0  0  0  0  0  0  0  0  0
  -41.4826  161.3116   84.8988 C   0  0  0  0  0  0  0  0  0  0  0  0
  -41.2197  161.6697   83.5952 C   0  0  0  0  0  0  0  0  0  0  0  0
  -45.2647  161.3869   84.6801 C   0  0  0  0  0  0  0  0  0  0  0  0
  -44.9097  162.0147   82.4726 C   0  0  2  0  0  0  0  0  0  0  0  0
  -45.0225  163.4706   82.0902 C   0  0  0  0  0  0  0  0  0  0  0  0
  -46.4639  163.9241   82.2145 C   0  0  0  0  0  0  0  0  0  0  0  0
  -47.4311  162.7776   81.9813 C   0  0  0  0  0  0  0  0  0  0  0  0
  -47.3075  161.7812   83.1140 C   0  0  0  0  0  0  0  0  0  0  0  0
  -35.4320  159.9486   76.5539 C   0  0  0  0  0  0  0  0  0  0  0  0
  -36.8550  153.2343   83.5962 N   0  0  0  0  0  0  0  0  0  0  0  0
  -33.6246  155.5405   82.4500 N   0  0  0  0  0  0  0  0  0  0  0  0
  -34.0958  155.8328   79.3440 N   0  0  0  0  0  0  0  0  0  0  0  0
  -33.4407  156.9746   79.1954 N   0  0  0  0  0  0  0  0  0  0  0  0
  -34.0989  157.7999   78.3990 N   0  0  0  0  0  0  0  0  0  0  0  0
  -38.2098  163.4949   78.8349 N   0  0  0  0  0  0  0  0  0  0  0  0
  -40.4117  163.0224   79.6442 N   0  0  0  0  0  0  0  0  0  0  0  0
  -42.0120  162.2919   81.4163 N   0  0  0  0  0  0  0  0  0  0  0  0
  -45.9080  161.7179   83.4582 N   0  0  0  0  0  0  0  0  0  0  0  0
  -36.3342  159.1800   77.3904 N   0  0  2  0  0  4  0  0  0  0  0  0
  -39.6889  162.4430   81.7325 O   0  0  0  0  0  0  0  0  0  0  0  0
  -45.8858  161.0915   85.7506 O   0  0  0  0  0  0  0  0  0  0  0  0
  1  2  2  0
  6  1  1  0
  2  3  1  0
  4  3  2  0
  5  4  1  0
  6  5  2  0
  5 39  1  0
  7  6  1  0
  7  8  2  0
 40  7  1  0
  8  9  1  0
  8 13  1  0
  9 10  1  0
  9 39  2  0
 10 11  2  0
 12 11  1  0
 13 12  2  0
 15 14  1  0
 14 40  1  0
 41 15  1  0
 16 17  2  0
 18 16  1  0
 16 43  1  0
 17 41  1  0
 48 18  1  0
 20 19  1  0
 19 48  1  0
 20 21  2  0
 24 20  1  0
 22 21  1  0
 44 22  2  0
 23 24  2  0
 23 44  1  0
 45 23  1  0
 25 45  1  0
 46 25  1  0
 25 49  2  0
 26 27  2  0
 26 31  1  0
 26 46  1  0
 27 28  1  0
 27 33  1  0
 28 29  2  0
 28 32  1  0
 29 30  1  0
 30 31  2  0
 32 47  1  0
 32 50  2  0
 33 34  1  1
 33 47  1  0
 34 35  1  0
 35 36  1  0
 36 37  1  0
 37 47  1  0
 48 38  1  6
 41 42  1  0
 42 43  2  0
M  CHG  1  48   1
M  END
$$$$
