
     RDKit          3D

 50 57  0  0  0  0  0  0  0  0999 V2000
  -35.6385  153.8812   76.9586 C   0  0  0  0  0  0  0  0  0  0  0  0
  -34.5941  153.1130   77.4301 C   0  0  0  0  0  0  0  0  0  0  0  0
  -34.3923  151.8272   76.9672 C   0  0  0  0  0  0  0  0  0  0  0  0
  -35.2768  151.3444   76.0159 C   0  0  0  0  0  0  0  0  0  0  0  0
  -36.3329  152.1053   75.5313 C   0  0  0  0  0  0  0  0  0  0  0  0
  -36.5036  153.3819   76.0149 C   0  0  0  0  0  0  0  0  0  0  0  0
  -37.5529  154.1156   75.5231 C   0  0  0  0  0  0  0  0  0  0  0  0
  -38.3962  153.5793   74.5798 C   0  0  0  0  0  0  0  0  0  0  0  0
  -38.2021  152.2865   74.1077 C   0  0  0  0  0  0  0  0  0  0  0  0
  -39.0453  151.7400   73.1605 C   0  0  0  0  0  0  0  0  0  0  0  0
  -40.1072  152.4485   72.6473 C   0  0  0  0  0  0  0  0  0  0  0  0
  -40.2954  153.7462   73.1265 C   0  0  0  0  0  0  0  0  0  0  0  0
  -39.4572  154.2880   74.0676 C   0  0  0  0  0  0  0  0  0  0  0  0
  -38.5401  155.6359   77.1960 C   0  0  0  0  0  0  0  0  0  0  0  0
  -38.0026  156.7389   78.0422 C   0  0  0  0  0  0  0  0  0  0  0  0
  -35.3126  155.8211   80.3517 C   0  0  0  0  0  0  0  0  0  0  0  0
  -35.8061  156.5378   79.2821 C   0  0  0  0  0  0  0  0  0  0  0  0
  -33.9307  155.8523   80.9513 C   0  0  0  0  0  0  0  0  0  0  0  0
  -34.4921  157.9319   81.8924 C   0  0  0  0  0  0  0  0  0  0  0  0
  -35.3111  158.5059   82.9922 C   0  0  0  0  0  0  0  0  0  0  0  0
  -34.8898  158.3378   84.2922 C   0  0  0  0  0  0  0  0  0  0  0  0
  -35.6885  158.8984   85.2832 C   0  0  0  0  0  0  0  0  0  0  0  0
  -37.2386  159.7409   83.6942 C   0  0  0  0  0  0  0  0  0  0  0  0
  -36.4658  159.1949   82.6892 C   0  0  0  0  0  0  0  0  0  0  0  0
  -39.2372  160.9637   84.5011 C   0  0  0  0  0  0  0  0  0  0  0  0
  -41.4478  161.9656   84.9850 C   0  0  0  0  0  0  0  0  0  0  0  0
  -42.4592  162.4603   84.1855 C   0  0  0  0  0  0  0  0  0  0  0  0
  -43.2081  163.5089   84.6811 C   0  0  0  0  0  0  0  0  0  0  0  0
  -42.9711  164.0613   85.9319 C   0  0  0  0  0  0  0  0  0  0  0  0
  -41.9514  163.5307   86.6877 C   0  0  0  0  0  0  0  0  0  0  0  0
  -41.1806  162.4845   86.2316 C   0  0  0  0  0  0  0  0  0  0  0  0
  -44.2142  163.8340   83.6635 C   0  0  0  0  0  0  0  0  0  0  0  0
  -42.9501  162.0826   82.8107 C   0  0  2  0  0  0  0  0  0  0  0  0
  -41.8542  162.3773   81.8153 C   0  0  0  0  0  0  0  0  0  0  0  0
  -42.4602  162.8607   80.5123 C   0  0  0  0  0  0  0  0  0  0  0  0
  -43.8458  162.2806   80.2928 C   0  0  0  0  0  0  0  0  0  0  0  0
  -44.7962  162.8529   81.3227 C   0  0  0  0  0  0  0  0  0  0  0  0
  -32.8441  156.5476   82.9749 C   0  0  0  0  0  0  0  0  0  0  0  0
  -37.1601  151.5877   74.6105 N   0  0  0  0  0  0  0  0  0  0  0  0
  -37.7772  155.4343   75.9856 N   0  0  0  0  0  0  0  0  0  0  0  0
  -37.0939  156.2144   79.0705 N   0  0  0  0  0  0  0  0  0  0  0  0
  -37.3943  155.3123   79.9929 N   0  0  0  0  0  0  0  0  0  0  0  0
  -36.3530  155.0603   80.7679 N   0  0  0  0  0  0  0  0  0  0  0  0
  -36.8213  159.5730   84.9600 N   0  0  0  0  0  0  0  0  0  0  0  0
  -38.4392  160.4569   83.4343 N   0  0  0  0  0  0  0  0  0  0  0  0
  -40.6487  160.8979   84.5106 N   0  0  0  0  0  0  0  0  0  0  0  0
  -44.0541  162.9612   82.5551 N   0  0  0  0  0  0  0  0  0  0  0  0
  -34.0633  156.5845   82.1896 N   0  0  2  0  0  4  0  0  0  0  0  0
  -38.5861  161.4911   85.4660 O   0  0  0  0  0  0  0  0  0  0  0  0
  -45.1027  164.7427   83.7275 O   0  0  0  0  0  0  0  0  0  0  0  0
  1  2  2  0
  6  1  1  0
  2  3  1  0
  4  3  2  0
  5  4  1  0
  6  5  2  0
  5 39  1  0
  7  6  1  0
  7  8  2  0
 40  7  1  0
  8  9  1  0
  8 13  1  0
  9 10  1  0
  9 39  2  0
 10 11  2  0
 12 11  1  0
 13 12  2  0
 15 14  1  0
 14 40  1  0
 41 15  1  0
 16 17  2  0
 18 16  1  0
 16 43  1  0
 17 41  1  0
 48 18  1  0
 20 19  1  0
 19 48  1  0
 20 21  2  0
 24 20  1  0
 22 21  1  0
 44 22  2  0
 23 24  2  0
 23 44  1  0
 45 23  1  0
 25 45  1  0
 46 25  1  0
 25 49  2  0
 26 27  2  0
 26 31  1  0
 26 46  1  0
 27 28  1  0
 27 33  1  0
 28 29  2  0
 28 32  1  0
 29 30  1  0
 30 31  2  0
 32 47  1  0
 32 50  2  0
 33 34  1  6
 33 47  1  0
 34 35  1  0
 35 36  1  0
 36 37  1  0
 37 47  1  0
 48 38  1  6
 41 42  1  0
 42 43  2  0
M  CHG  1  48   1
M  END
$$$$
