
     RDKit          3D

 50 57  0  0  0  0  0  0  0  0999 V2000
  -41.0766  165.8313   81.8210 C   0  0  0  0  0  0  0  0  0  0  0  0
  -40.6853  166.9949   81.1915 C   0  0  0  0  0  0  0  0  0  0  0  0
  -41.6173  167.8517   80.6386 C   0  0  0  0  0  0  0  0  0  0  0  0
  -42.9526  167.4960   80.7421 C   0  0  0  0  0  0  0  0  0  0  0  0
  -43.3624  166.3283   81.3726 C   0  0  0  0  0  0  0  0  0  0  0  0
  -42.4067  165.4986   81.9119 C   0  0  0  0  0  0  0  0  0  0  0  0
  -42.8332  164.3505   82.5295 C   0  0  0  0  0  0  0  0  0  0  0  0
  -44.1732  164.0535   82.5988 C   0  0  0  0  0  0  0  0  0  0  0  0
  -45.1189  164.9087   82.0456 C   0  0  0  0  0  0  0  0  0  0  0  0
  -46.4672  164.6172   82.1102 C   0  0  0  0  0  0  0  0  0  0  0  0
  -46.9282  163.4742   82.7218 C   0  0  0  0  0  0  0  0  0  0  0  0
  -45.9721  162.6204   83.2749 C   0  0  0  0  0  0  0  0  0  0  0  0
  -44.6330  162.9110   83.2099 C   0  0  0  0  0  0  0  0  0  0  0  0
  -40.5137  163.5246   82.6784 C   0  0  0  0  0  0  0  0  0  0  0  0
  -40.2579  162.7716   81.4177 C   0  0  0  0  0  0  0  0  0  0  0  0
  -39.2440  159.2655   81.7202 C   0  0  0  0  0  0  0  0  0  0  0  0
  -39.0889  160.5371   81.2101 C   0  0  0  0  0  0  0  0  0  0  0  0
  -38.4095  158.0377   81.4632 C   0  0  0  0  0  0  0  0  0  0  0  0
  -36.6675  156.7832   82.4212 C   0  0  0  0  0  0  0  0  0  0  0  0
  -35.8062  156.7797   81.2096 C   0  0  0  0  0  0  0  0  0  0  0  0
  -35.5685  157.9700   80.5595 C   0  0  0  0  0  0  0  0  0  0  0  0
  -34.7521  157.9134   79.4351 C   0  0  0  0  0  0  0  0  0  0  0  0
  -34.4551  155.5674   79.6483 C   0  0  0  0  0  0  0  0  0  0  0  0
  -35.2623  155.5929   80.7677 C   0  0  0  0  0  0  0  0  0  0  0  0
  -34.1385  153.1125   79.7682 C   0  0  0  0  0  0  0  0  0  0  0  0
  -33.4909  150.7506   79.4121 C   0  0  0  0  0  0  0  0  0  0  0  0
  -33.1291  149.6843   80.2115 C   0  0  0  0  0  0  0  0  0  0  0  0
  -33.4314  148.4161   79.7574 C   0  0  0  0  0  0  0  0  0  0  0  0
  -34.0735  148.1971   78.5467 C   0  0  0  0  0  0  0  0  0  0  0  0
  -34.4121  149.2945   77.7894 C   0  0  0  0  0  0  0  0  0  0  0  0
  -34.1295  150.5766   78.2052 C   0  0  0  0  0  0  0  0  0  0  0  0
  -32.9663  147.4733   80.7812 C   0  0  0  0  0  0  0  0  0  0  0  0
  -32.4353  149.6002   81.5477 C   0  0  2  0  0  0  0  0  0  0  0  0
  -31.0252  150.1141   81.3862 C   0  0  0  0  0  0  0  0  0  0  0  0
  -30.0854  149.3234   82.2752 C   0  0  0  0  0  0  0  0  0  0  0  0
  -30.7958  148.7980   83.5097 C   0  0  0  0  0  0  0  0  0  0  0  0
  -31.8071  147.7503   83.0965 C   0  0  0  0  0  0  0  0  0  0  0  0
  -38.0532  158.1578   83.8334 C   0  0  0  0  0  0  0  0  0  0  0  0
  -44.6691  166.0321   81.4435 N   0  0  0  0  0  0  0  0  0  0  0  0
  -41.8939  163.4592   83.1008 N   0  0  0  0  0  0  0  0  0  0  0  0
  -40.0497  161.3439   81.6940 N   0  0  0  0  0  0  0  0  0  0  0  0
  -40.7884  160.5856   82.4904 N   0  0  0  0  0  0  0  0  0  0  0  0
  -40.3312  159.3453   82.5240 N   0  0  0  0  0  0  0  0  0  0  0  0
  -34.2276  156.7324   79.0193 N   0  0  0  0  0  0  0  0  0  0  0  0
  -33.8733  154.3693   79.1503 N   0  0  0  0  0  0  0  0  0  0  0  0
  -33.1897  152.0675   79.8351 N   0  0  0  0  0  0  0  0  0  0  0  0
  -32.3840  148.2001   81.8531 N   0  0  0  0  0  0  0  0  0  0  0  0
  -37.4359  158.0021   82.5299 N   0  0  2  0  0  4  0  0  0  0  0  0
  -35.3085  152.9862   80.2668 O   0  0  0  0  0  0  0  0  0  0  0  0
  -33.0531  146.2042   80.7501 O   0  0  0  0  0  0  0  0  0  0  0  0
  1  2  2  0
  6  1  1  0
  2  3  1  0
  4  3  2  0
  5  4  1  0
  6  5  2  0
  5 39  1  0
  7  6  1  0
  7  8  2  0
 40  7  1  0
  8  9  1  0
  8 13  1  0
  9 10  1  0
  9 39  2  0
 10 11  2  0
 12 11  1  0
 13 12  2  0
 15 14  1  0
 14 40  1  0
 41 15  1  0
 16 17  2  0
 18 16  1  0
 16 43  1  0
 17 41  1  0
 48 18  1  0
 20 19  1  0
 19 48  1  0
 20 21  2  0
 24 20  1  0
 22 21  1  0
 44 22  2  0
 23 24  2  0
 23 44  1  0
 45 23  1  0
 25 45  1  0
 46 25  1  0
 25 49  2  0
 26 27  2  0
 26 31  1  0
 26 46  1  0
 27 28  1  0
 27 33  1  0
 28 29  2  0
 28 32  1  0
 29 30  1  0
 30 31  2  0
 32 47  1  0
 32 50  2  0
 33 34  1  6
 33 47  1  0
 34 35  1  0
 35 36  1  0
 36 37  1  0
 37 47  1  0
 48 38  1  1
 41 42  1  0
 42 43  2  0
M  CHG  1  48   1
M  END
$$$$
