
     RDKit          3D

 50 57  0  0  0  0  0  0  0  0999 V2000
  -44.8448  161.5388   82.5257 C   0  0  0  0  0  0  0  0  0  0  0  0
  -45.9609  161.1126   81.8357 C   0  0  0  0  0  0  0  0  0  0  0  0
  -46.3354  161.7135   80.6496 C   0  0  0  0  0  0  0  0  0  0  0  0
  -45.5485  162.7552   80.1848 C   0  0  0  0  0  0  0  0  0  0  0  0
  -44.4222  163.1957   80.8678 C   0  0  0  0  0  0  0  0  0  0  0  0
  -44.0791  162.5739   82.0460 C   0  0  0  0  0  0  0  0  0  0  0  0
  -42.9635  163.0250   82.7043 C   0  0  0  0  0  0  0  0  0  0  0  0
  -42.2245  164.0640   82.1913 C   0  0  0  0  0  0  0  0  0  0  0  0
  -42.5929  164.6756   80.9988 C   0  0  0  0  0  0  0  0  0  0  0  0
  -41.8563  165.7205   80.4770 C   0  0  0  0  0  0  0  0  0  0  0  0
  -40.7329  166.1973   81.1123 C   0  0  0  0  0  0  0  0  0  0  0  0
  -40.3695  165.5778   82.3094 C   0  0  0  0  0  0  0  0  0  0  0  0
  -41.1021  164.5399   82.8269 C   0  0  0  0  0  0  0  0  0  0  0  0
  -41.6883  161.2748   83.8855 C   0  0  0  0  0  0  0  0  0  0  0  0
  -40.8367  161.1577   85.1031 C   0  0  0  0  0  0  0  0  0  0  0  0
  -37.3867  159.9966   84.7007 C   0  0  0  0  0  0  0  0  0  0  0  0
  -38.5978  160.0069   85.3596 C   0  0  0  0  0  0  0  0  0  0  0  0
  -36.1422  159.2123   85.0261 C   0  0  0  0  0  0  0  0  0  0  0  0
  -35.5752  156.9496   84.7347 C   0  0  0  0  0  0  0  0  0  0  0  0
  -35.0928  155.9428   83.7533 C   0  0  0  0  0  0  0  0  0  0  0  0
  -33.9330  155.2521   84.0251 C   0  0  0  0  0  0  0  0  0  0  0  0
  -33.5279  154.3179   83.0778 C   0  0  0  0  0  0  0  0  0  0  0  0
  -35.3883  154.7850   81.6784 C   0  0  0  0  0  0  0  0  0  0  0  0
  -35.8148  155.7192   82.6007 C   0  0  0  0  0  0  0  0  0  0  0  0
  -35.6094  153.5660   79.5323 C   0  0  0  0  0  0  0  0  0  0  0  0
  -36.5699  153.2487   77.2735 C   0  0  0  0  0  0  0  0  0  0  0  0
  -36.1726  152.6513   76.0936 C   0  0  0  0  0  0  0  0  0  0  0  0
  -37.1595  152.1412   75.2739 C   0  0  0  0  0  0  0  0  0  0  0  0
  -38.5058  152.2151   75.6025 C   0  0  0  0  0  0  0  0  0  0  0  0
  -38.8468  152.8203   76.7898 C   0  0  0  0  0  0  0  0  0  0  0  0
  -37.8943  153.3418   77.6368 C   0  0  0  0  0  0  0  0  0  0  0  0
  -36.4866  151.5529   74.1100 C   0  0  0  0  0  0  0  0  0  0  0  0
  -34.8183  152.4235   75.4709 C   0  0  2  0  0  0  0  0  0  0  0  0
  -34.2156  153.7661   75.1354 C   0  0  0  0  0  0  0  0  0  0  0  0
  -33.4155  153.6637   73.8517 C   0  0  0  0  0  0  0  0  0  0  0  0
  -32.8544  152.2670   73.6544 C   0  0  0  0  0  0  0  0  0  0  0  0
  -33.9930  151.3019   73.4029 C   0  0  0  0  0  0  0  0  0  0  0  0
  -35.3953  158.4658   82.8711 C   0  0  0  0  0  0  0  0  0  0  0  0
  -43.6965  164.2098   80.3727 N   0  0  0  0  0  0  0  0  0  0  0  0
  -42.5641  162.4234   83.9216 N   0  0  0  0  0  0  0  0  0  0  0  0
  -39.4471  160.8466   84.7419 N   0  0  0  0  0  0  0  0  0  0  0  0
  -38.7743  161.3489   83.7172 N   0  0  0  0  0  0  0  0  0  0  0  0
  -37.5465  160.8602   83.6695 N   0  0  0  0  0  0  0  0  0  0  0  0
  -34.2562  154.1150   81.9503 N   0  0  0  0  0  0  0  0  0  0  0  0
  -36.0950  154.5201   80.4733 N   0  0  0  0  0  0  0  0  0  0  0  0
  -35.5907  153.7946   78.1379 N   0  0  0  0  0  0  0  0  0  0  0  0
  -35.0834  151.7189   74.2505 N   0  0  0  0  0  0  0  0  0  0  0  0
  -36.1161  158.1196   84.0815 N   0  0  2  0  0  4  0  0  0  0  0  0
  -35.1846  152.4709   80.0359 O   0  0  0  0  0  0  0  0  0  0  0  0
  -37.0364  150.9784   73.1167 O   0  0  0  0  0  0  0  0  0  0  0  0
  1  2  2  0
  6  1  1  0
  2  3  1  0
  4  3  2  0
  5  4  1  0
  6  5  2  0
  5 39  1  0
  7  6  1  0
  7  8  2  0
 40  7  1  0
  8  9  1  0
  8 13  1  0
  9 10  1  0
  9 39  2  0
 10 11  2  0
 12 11  1  0
 13 12  2  0
 15 14  1  0
 14 40  1  0
 41 15  1  0
 16 17  2  0
 18 16  1  0
 16 43  1  0
 17 41  1  0
 48 18  1  0
 20 19  1  0
 19 48  1  0
 20 21  2  0
 24 20  1  0
 22 21  1  0
 44 22  2  0
 23 24  2  0
 23 44  1  0
 45 23  1  0
 25 45  1  0
 46 25  1  0
 25 49  2  0
 26 27  2  0
 26 31  1  0
 26 46  1  0
 27 28  1  0
 27 33  1  0
 28 29  2  0
 28 32  1  0
 29 30  1  0
 30 31  2  0
 32 47  1  0
 32 50  2  0
 33 34  1  6
 33 47  1  0
 34 35  1  0
 35 36  1  0
 36 37  1  0
 37 47  1  0
 48 38  1  6
 41 42  1  0
 42 43  2  0
M  CHG  1  48   1
M  END
$$$$
