
     RDKit          3D

 50 57  0  0  0  0  0  0  0  0999 V2000
  -44.3662  161.3486   82.1559 C   0  0  0  0  0  0  0  0  0  0  0  0
  -44.4355  162.2829   83.1686 C   0  0  0  0  0  0  0  0  0  0  0  0
  -45.6503  162.7951   83.5810 C   0  0  0  0  0  0  0  0  0  0  0  0
  -46.7889  162.3342   82.9393 C   0  0  0  0  0  0  0  0  0  0  0  0
  -46.7357  161.3941   81.9184 C   0  0  0  0  0  0  0  0  0  0  0  0
  -45.5084  160.9058   81.5335 C   0  0  0  0  0  0  0  0  0  0  0  0
  -45.4787  159.9786   80.5232 C   0  0  0  0  0  0  0  0  0  0  0  0
  -46.6441  159.5620   79.9258 C   0  0  0  0  0  0  0  0  0  0  0  0
  -47.8716  160.0713   80.3331 C   0  0  0  0  0  0  0  0  0  0  0  0
  -49.0471  159.6585   79.7375 C   0  0  0  0  0  0  0  0  0  0  0  0
  -49.0523  158.7308   78.7214 C   0  0  0  0  0  0  0  0  0  0  0  0
  -47.8155  158.2241   78.3180 C   0  0  0  0  0  0  0  0  0  0  0  0
  -46.6485  158.6350   78.9104 C   0  0  0  0  0  0  0  0  0  0  0  0
  -43.4829  160.1544   79.0844 C   0  0  0  0  0  0  0  0  0  0  0  0
  -42.0173  160.1441   79.3558 C   0  0  0  0  0  0  0  0  0  0  0  0
  -40.7191  161.2229   82.6059 C   0  0  0  0  0  0  0  0  0  0  0  0
  -40.5699  160.6155   81.3771 C   0  0  0  0  0  0  0  0  0  0  0  0
  -39.6973  161.4064   83.6978 C   0  0  0  0  0  0  0  0  0  0  0  0
  -37.5423  162.2597   83.3055 C   0  0  0  0  0  0  0  0  0  0  0  0
  -37.1258  161.7221   81.9836 C   0  0  0  0  0  0  0  0  0  0  0  0
  -37.5277  162.3791   80.8423 C   0  0  0  0  0  0  0  0  0  0  0  0
  -37.1070  161.8388   79.6318 C   0  0  0  0  0  0  0  0  0  0  0  0
  -35.9433  160.0735   80.7122 C   0  0  0  0  0  0  0  0  0  0  0  0
  -36.3462  160.5869   81.9284 C   0  0  0  0  0  0  0  0  0  0  0  0
  -35.7346  157.6270   80.3777 C   0  0  0  0  0  0  0  0  0  0  0  0
  -35.3515  155.1847   80.2622 C   0  0  0  0  0  0  0  0  0  0  0  0
  -34.9787  154.0279   80.9178 C   0  0  0  0  0  0  0  0  0  0  0  0
  -35.1113  152.8365   80.2331 C   0  0  0  0  0  0  0  0  0  0  0  0
  -35.5979  152.7794   78.9347 C   0  0  0  0  0  0  0  0  0  0  0  0
  -35.9551  153.9613   78.3280 C   0  0  0  0  0  0  0  0  0  0  0  0
  -35.8393  155.1714   78.9751 C   0  0  0  0  0  0  0  0  0  0  0  0
  -34.6716  151.7706   81.1408 C   0  0  0  0  0  0  0  0  0  0  0  0
  -34.4260  153.7697   82.2968 C   0  0  2  0  0  0  0  0  0  0  0  0
  -33.0609  154.4071   82.3906 C   0  0  0  0  0  0  0  0  0  0  0  0
  -32.1511  153.5489   83.2478 C   0  0  0  0  0  0  0  0  0  0  0  0
  -32.9365  152.7699   84.2874 C   0  0  0  0  0  0  0  0  0  0  0  0
  -33.7959  151.7353   83.5929 C   0  0  0  0  0  0  0  0  0  0  0  0
  -39.2446  163.7080   84.2050 C   0  0  0  0  0  0  0  0  0  0  0  0
  -47.8696  160.9833   81.3306 N   0  0  0  0  0  0  0  0  0  0  0  0
  -44.2439  159.4429   80.0855 N   0  0  0  0  0  0  0  0  0  0  0  0
  -41.7302  160.6646   80.6992 N   0  0  0  0  0  0  0  0  0  0  0  0
  -42.5847  161.2915   81.4940 N   0  0  0  0  0  0  0  0  0  0  0  0
  -42.0092  161.6344   82.6342 N   0  0  0  0  0  0  0  0  0  0  0  0
  -36.3391  160.7197   79.6029 N   0  0  0  0  0  0  0  0  0  0  0  0
  -35.1423  158.9039   80.6016 N   0  0  0  0  0  0  0  0  0  0  0  0
  -35.2212  156.4292   80.9241 N   0  0  0  0  0  0  0  0  0  0  0  0
  -34.2769  152.3458   82.3776 N   0  0  0  0  0  0  0  0  0  0  0  0
  -38.9494  162.5872   83.3325 N   0  0  2  0  0  4  0  0  0  0  0  0
  -36.7775  157.6317   79.6389 O   0  0  0  0  0  0  0  0  0  0  0  0
  -34.6357  150.5224   80.8963 O   0  0  0  0  0  0  0  0  0  0  0  0
  1  2  2  0
  6  1  1  0
  2  3  1  0
  4  3  2  0
  5  4  1  0
  6  5  2  0
  5 39  1  0
  7  6  1  0
  7  8  2  0
 40  7  1  0
  8  9  1  0
  8 13  1  0
  9 10  1  0
  9 39  2  0
 10 11  2  0
 12 11  1  0
 13 12  2  0
 15 14  1  0
 14 40  1  0
 41 15  1  0
 16 17  2  0
 18 16  1  0
 16 43  1  0
 17 41  1  0
 48 18  1  0
 20 19  1  0
 19 48  1  0
 20 21  2  0
 24 20  1  0
 22 21  1  0
 44 22  2  0
 23 24  2  0
 23 44  1  0
 45 23  1  0
 25 45  1  0
 46 25  1  0
 25 49  2  0
 26 27  2  0
 26 31  1  0
 26 46  1  0
 27 28  1  0
 27 33  1  0
 28 29  2  0
 28 32  1  0
 29 30  1  0
 30 31  2  0
 32 47  1  0
 32 50  2  0
 33 34  1  6
 33 47  1  0
 34 35  1  0
 35 36  1  0
 36 37  1  0
 37 47  1  0
 48 38  1  1
 41 42  1  0
 42 43  2  0
M  CHG  1  48   1
M  END
$$$$
