
     RDKit          3D

 50 57  0  0  0  0  0  0  0  0999 V2000
  -44.1637  161.5271   84.5687 C   0  0  0  0  0  0  0  0  0  0  0  0
  -45.5020  161.5263   84.2334 C   0  0  0  0  0  0  0  0  0  0  0  0
  -45.9975  162.4004   83.2855 C   0  0  0  0  0  0  0  0  0  0  0  0
  -45.1003  163.2723   82.6894 C   0  0  0  0  0  0  0  0  0  0  0  0
  -43.7505  163.2853   83.0161 C   0  0  0  0  0  0  0  0  0  0  0  0
  -43.2919  162.4006   83.9647 C   0  0  0  0  0  0  0  0  0  0  0  0
  -41.9556  162.4308   84.2724 C   0  0  0  0  0  0  0  0  0  0  0  0
  -41.1165  163.3206   83.6458 C   0  0  0  0  0  0  0  0  0  0  0  0
  -41.6050  164.2044   82.6908 C   0  0  0  0  0  0  0  0  0  0  0  0
  -40.7687  165.1021   82.0571 C   0  0  0  0  0  0  0  0  0  0  0  0
  -39.4240  165.1587   82.3429 C   0  0  0  0  0  0  0  0  0  0  0  0
  -38.9411  164.2678   83.3032 C   0  0  0  0  0  0  0  0  0  0  0  0
  -39.7729  163.3766   83.9321 C   0  0  0  0  0  0  0  0  0  0  0  0
  -40.1222  160.9649   85.0302 C   0  0  0  0  0  0  0  0  0  0  0  0
  -39.7604  159.9583   86.0683 C   0  0  0  0  0  0  0  0  0  0  0  0
  -36.6462  158.0775   85.6475 C   0  0  0  0  0  0  0  0  0  0  0  0
  -37.9842  158.1587   85.9704 C   0  0  0  0  0  0  0  0  0  0  0  0
  -35.7461  156.8692   85.6525 C   0  0  0  0  0  0  0  0  0  0  0  0
  -37.0479  155.8260   83.9962 C   0  0  0  0  0  0  0  0  0  0  0  0
  -37.1956  155.5067   82.5519 C   0  0  0  0  0  0  0  0  0  0  0  0
  -36.5197  154.4226   82.0383 C   0  0  0  0  0  0  0  0  0  0  0  0
  -36.6960  154.1636   80.6833 C   0  0  0  0  0  0  0  0  0  0  0  0
  -38.1616  156.0131   80.4204 C   0  0  0  0  0  0  0  0  0  0  0  0
  -38.0054  156.2946   81.7627 C   0  0  0  0  0  0  0  0  0  0  0  0
  -38.6417  156.9858   78.1924 C   0  0  0  0  0  0  0  0  0  0  0  0
  -39.4208  158.0656   76.1062 C   0  0  0  0  0  0  0  0  0  0  0  0
  -40.2498  159.0482   75.6022 C   0  0  0  0  0  0  0  0  0  0  0  0
  -40.6431  158.9355   74.2836 C   0  0  0  0  0  0  0  0  0  0  0  0
  -40.2338  157.8833   73.4767 C   0  0  0  0  0  0  0  0  0  0  0  0
  -39.4080  156.9316   74.0288 C   0  0  0  0  0  0  0  0  0  0  0  0
  -38.9917  157.0062   75.3394 C   0  0  0  0  0  0  0  0  0  0  0  0
  -41.4925  160.0957   73.9902 C   0  0  0  0  0  0  0  0  0  0  0  0
  -40.8534  160.2870   76.2147 C   0  0  2  0  0  0  0  0  0  0  0  0
  -41.8139  159.8633   77.2993 C   0  0  0  0  0  0  0  0  0  0  0  0
  -42.9994  160.8078   77.3334 C   0  0  0  0  0  0  0  0  0  0  0  0
  -42.6182  162.1982   76.8577 C   0  0  0  0  0  0  0  0  0  0  0  0
  -42.2876  162.1483   75.3815 C   0  0  0  0  0  0  0  0  0  0  0  0
  -34.6707  155.4384   84.0539 C   0  0  0  0  0  0  0  0  0  0  0  0
  -42.9257  164.1517   82.4083 N   0  0  0  0  0  0  0  0  0  0  0  0
  -41.4289  161.5442   85.2418 N   0  0  0  0  0  0  0  0  0  0  0  0
  -38.4112  159.4264   85.8336 N   0  0  0  0  0  0  0  0  0  0  0  0
  -37.3561  160.1199   85.4328 N   0  0  0  0  0  0  0  0  0  0  0  0
  -36.2933  159.3419   85.3142 N   0  0  0  0  0  0  0  0  0  0  0  0
  -37.4993  154.9540   79.9263 N   0  0  0  0  0  0  0  0  0  0  0  0
  -38.9821  156.7969   79.5636 N   0  0  0  0  0  0  0  0  0  0  0  0
  -39.0029  158.1371   77.4568 N   0  0  0  0  0  0  0  0  0  0  0  0
  -41.5972  160.9021   75.1543 N   0  0  0  0  0  0  0  0  0  0  0  0
  -35.7471  156.3811   84.2927 N   0  0  2  0  0  4  0  0  0  0  0  0
  -37.9780  156.0327   77.6591 O   0  0  0  0  0  0  0  0  0  0  0  0
  -42.0603  160.3695   72.8849 O   0  0  0  0  0  0  0  0  0  0  0  0
  1  2  2  0
  6  1  1  0
  2  3  1  0
  4  3  2  0
  5  4  1  0
  6  5  2  0
  5 39  1  0
  7  6  1  0
  7  8  2  0
 40  7  1  0
  8  9  1  0
  8 13  1  0
  9 10  1  0
  9 39  2  0
 10 11  2  0
 12 11  1  0
 13 12  2  0
 15 14  1  0
 14 40  1  0
 41 15  1  0
 16 17  2  0
 18 16  1  0
 16 43  1  0
 17 41  1  0
 48 18  1  0
 20 19  1  0
 19 48  1  0
 20 21  2  0
 24 20  1  0
 22 21  1  0
 44 22  2  0
 23 24  2  0
 23 44  1  0
 45 23  1  0
 25 45  1  0
 46 25  1  0
 25 49  2  0
 26 27  2  0
 26 31  1  0
 26 46  1  0
 27 28  1  0
 27 33  1  0
 28 29  2  0
 28 32  1  0
 29 30  1  0
 30 31  2  0
 32 47  1  0
 32 50  2  0
 33 34  1  1
 33 47  1  0
 34 35  1  0
 35 36  1  0
 36 37  1  0
 37 47  1  0
 48 38  1  1
 41 42  1  0
 42 43  2  0
M  CHG  1  48   1
M  END
$$$$
