
     RDKit          3D

 50 57  0  0  0  0  0  0  0  0999 V2000
  -40.2029  165.1319   81.3485 C   0  0  0  0  0  0  0  0  0  0  0  0
  -39.7646  166.2229   80.6267 C   0  0  0  0  0  0  0  0  0  0  0  0
  -40.6410  167.2193   80.2424 C   0  0  0  0  0  0  0  0  0  0  0  0
  -41.9697  167.0781   80.6099 C   0  0  0  0  0  0  0  0  0  0  0  0
  -42.4262  165.9859   81.3363 C   0  0  0  0  0  0  0  0  0  0  0  0
  -41.5253  165.0126   81.7020 C   0  0  0  0  0  0  0  0  0  0  0  0
  -41.9975  163.9427   82.4186 C   0  0  0  0  0  0  0  0  0  0  0  0
  -43.3282  163.8603   82.7518 C   0  0  0  0  0  0  0  0  0  0  0  0
  -44.2182  164.8573   82.3699 C   0  0  0  0  0  0  0  0  0  0  0  0
  -45.5569  164.7818   82.7001 C   0  0  0  0  0  0  0  0  0  0  0  0
  -46.0630  163.7222   83.4172 C   0  0  0  0  0  0  0  0  0  0  0  0
  -45.1627  162.7250   83.7971 C   0  0  0  0  0  0  0  0  0  0  0  0
  -43.8331  162.8011   83.4683 C   0  0  0  0  0  0  0  0  0  0  0  0
  -41.1193  162.4789   84.1992 C   0  0  0  0  0  0  0  0  0  0  0  0
  -39.7509  162.2071   84.7239 C   0  0  0  0  0  0  0  0  0  0  0  0
  -38.8007  159.0965   83.0408 C   0  0  0  0  0  0  0  0  0  0  0  0
  -39.7180  159.9012   83.6826 C   0  0  0  0  0  0  0  0  0  0  0  0
  -38.9914  157.7124   82.4767 C   0  0  0  0  0  0  0  0  0  0  0  0
  -36.9603  156.9720   83.3998 C   0  0  0  0  0  0  0  0  0  0  0  0
  -36.0682  155.7884   83.2849 C   0  0  0  0  0  0  0  0  0  0  0  0
  -35.9065  154.9690   84.3796 C   0  0  0  0  0  0  0  0  0  0  0  0
  -35.0661  153.8727   84.2183 C   0  0  0  0  0  0  0  0  0  0  0  0
  -34.6009  154.4380   81.9596 C   0  0  0  0  0  0  0  0  0  0  0  0
  -35.4293  155.5343   82.0904 C   0  0  0  0  0  0  0  0  0  0  0  0
  -33.6727  152.7844   80.3644 C   0  0  0  0  0  0  0  0  0  0  0  0
  -33.2078  151.0580   78.6532 C   0  0  0  0  0  0  0  0  0  0  0  0
  -33.7583  150.6868   77.4424 C   0  0  0  0  0  0  0  0  0  0  0  0
  -33.6793  149.3548   77.0880 C   0  0  0  0  0  0  0  0  0  0  0  0
  -33.0748  148.4072   77.9019 C   0  0  0  0  0  0  0  0  0  0  0  0
  -32.5421  148.8305   79.0975 C   0  0  0  0  0  0  0  0  0  0  0  0
  -32.5989  150.1497   79.4891 C   0  0  0  0  0  0  0  0  0  0  0  0
  -34.3118  149.2248   75.7702 C   0  0  0  0  0  0  0  0  0  0  0  0
  -34.4679  151.4648   76.3630 C   0  0  2  0  0  0  0  0  0  0  0  0
  -35.7644  151.9917   76.9287 C   0  0  0  0  0  0  0  0  0  0  0  0
  -36.8364  151.9769   75.8566 C   0  0  0  0  0  0  0  0  0  0  0  0
  -36.2403  152.1405   74.4700 C   0  0  0  0  0  0  0  0  0  0  0  0
  -35.4249  150.9118   74.1283 C   0  0  0  0  0  0  0  0  0  0  0  0
  -36.9468  158.1532   81.3001 C   0  0  0  0  0  0  0  0  0  0  0  0
  -43.7243  165.8992   81.6648 N   0  0  0  0  0  0  0  0  0  0  0  0
  -41.1159  162.9110   82.8204 N   0  0  0  0  0  0  0  0  0  0  0  0
  -39.1412  161.0654   84.0291 N   0  0  0  0  0  0  0  0  0  0  0  0
  -37.8873  160.9842   83.6096 N   0  0  0  0  0  0  0  0  0  0  0  0
  -37.6583  159.8237   83.0184 N   0  0  0  0  0  0  0  0  0  0  0  0
  -34.4480  153.6431   83.0316 N   0  0  0  0  0  0  0  0  0  0  0  0
  -33.9168  154.1345   80.7507 N   0  0  0  0  0  0  0  0  0  0  0  0
  -33.2769  152.4120   79.0599 N   0  0  0  0  0  0  0  0  0  0  0  0
  -34.7670  150.5007   75.3445 N   0  0  0  0  0  0  0  0  0  0  0  0
  -37.6637  157.2357   82.1655 N   0  0  2  0  0  4  0  0  0  0  0  0
  -33.8372  151.9152   81.2868 O   0  0  0  0  0  0  0  0  0  0  0  0
  -34.4489  148.1595   75.0880 O   0  0  0  0  0  0  0  0  0  0  0  0
  1  2  2  0
  6  1  1  0
  2  3  1  0
  4  3  2  0
  5  4  1  0
  6  5  2  0
  5 39  1  0
  7  6  1  0
  7  8  2  0
 40  7  1  0
  8  9  1  0
  8 13  1  0
  9 10  1  0
  9 39  2  0
 10 11  2  0
 12 11  1  0
 13 12  2  0
 15 14  1  0
 14 40  1  0
 41 15  1  0
 16 17  2  0
 18 16  1  0
 16 43  1  0
 17 41  1  0
 48 18  1  0
 20 19  1  0
 19 48  1  0
 20 21  2  0
 24 20  1  0
 22 21  1  0
 44 22  2  0
 23 24  2  0
 23 44  1  0
 45 23  1  0
 25 45  1  0
 46 25  1  0
 25 49  2  0
 26 27  2  0
 26 31  1  0
 26 46  1  0
 27 28  1  0
 27 33  1  0
 28 29  2  0
 28 32  1  0
 29 30  1  0
 30 31  2  0
 32 47  1  0
 32 50  2  0
 33 34  1  1
 33 47  1  0
 34 35  1  0
 35 36  1  0
 36 37  1  0
 37 47  1  0
 48 38  1  1
 41 42  1  0
 42 43  2  0
M  CHG  1  48   1
M  END
$$$$
