
     RDKit          3D

 67 68  0  0  0  0  0  0  0  0999 V2000
  161.7824   32.3626  201.2699 C   0  0  1  0  0  0  0  0  0  0  0  0
  161.7068   32.8946  202.7328 C   0  0  1  0  0  0  0  0  0  0  0  0
  163.0953   32.9807  203.3787 C   0  0  1  0  0  0  0  0  0  0  0  0
  163.9078   31.6871  203.2165 C   0  0  2  0  0  0  0  0  0  0  0  0
  163.2749   30.7218  202.1874 C   0  0  1  0  0  0  0  0  0  0  0  0
  161.8593   33.4545  200.1931 C   0  0  0  0  0  0  0  0  0  0  0  0
  162.0671   14.2523  205.7767 C   0  0  0  0  0  0  0  0  0  0  0  0
  160.9017   15.0183  206.3850 C   0  0  0  0  0  0  0  0  0  0  0  0
  161.2870   15.8833  207.5910 C   0  0  0  0  0  0  0  0  0  0  0  0
  160.1445   16.7214  208.1788 C   0  0  0  0  0  0  0  0  0  0  0  0
  160.3531   18.2354  208.2257 C   0  0  0  0  0  0  0  0  0  0  0  0
  159.3259   18.9588  209.0992 C   0  0  0  0  0  0  0  0  0  0  0  0
  159.9242   20.2021  209.7636 C   0  0  0  0  0  0  0  0  0  0  0  0
  160.6171   21.1457  208.7729 C   0  0  0  0  0  0  0  0  0  0  0  0
  159.7645   22.3071  208.2487 C   0  0  0  0  0  0  0  0  0  0  0  0
  160.4931   23.2939  207.3340 C   0  0  0  0  0  0  0  0  0  0  0  0
  159.5814   24.3915  206.7834 C   0  0  0  0  0  0  0  0  0  0  0  0
  160.3167   25.2349  205.7401 C   0  0  0  0  0  0  0  0  0  0  0  0
  159.3940   26.2762  205.1112 C   0  0  0  0  0  0  0  0  0  0  0  0
  158.8877   27.3507  206.0782 C   0  0  0  0  0  0  0  0  0  0  0  0
  159.4085   28.7753  205.8303 C   0  0  1  0  0  0  0  0  0  0  0  0
  158.5846   29.6889  206.5737 O   0  0  0  0  0  0  0  0  0  0  0  0
  160.8966   29.0467  206.1626 C   0  0  1  0  0  0  0  0  0  0  0  0
  161.3734   28.1164  207.1600 O   0  0  0  0  0  0  0  0  0  0  0  0
  161.8752   29.0625  204.9547 C   0  0  2  0  0  0  0  0  0  0  0  0
  161.8808   30.3338  204.0823 C   0  0  0  0  0  0  0  0  0  0  0  0
  162.1450   30.0322  202.7165 O   0  0  0  0  0  0  0  0  0  0  0  0
  164.0933   31.0567  204.4941 O   0  0  0  0  0  0  0  0  0  0  0  0
  163.8165   34.0887  202.8038 O   0  0  0  0  0  0  0  0  0  0  0  0
  162.8796   31.4563  201.0321 O   0  0  0  0  0  0  0  0  0  0  0  0
  162.6357   33.0332  199.0727 O   0  0  0  0  0  0  0  0  0  0  0  0
  161.1125   34.2002  202.8458 O   0  0  0  0  0  0  0  0  0  0  0  0
  160.1818   34.4798  201.7978 C   0  0  0  0  0  0  0  0  0  0  0  0
  158.9610   33.6012  201.9395 C   0  0  0  0  0  0  0  0  0  0  0  0
  158.3182   33.0908  200.7998 C   0  0  0  0  0  0  0  0  0  0  0  0
  157.2069   32.2569  200.9238 C   0  0  0  0  0  0  0  0  0  0  0  0
  156.7269   31.9167  202.1859 C   0  0  0  0  0  0  0  0  0  0  0  0
  157.3551   32.4155  203.3274 C   0  0  0  0  0  0  0  0  0  0  0  0
  158.4684   33.2522  203.2052 C   0  0  0  0  0  0  0  0  0  0  0  0
  161.5972   27.8904  204.1091 N   0  0  0  0  0  0  0  0  0  0  0  0
  162.4457   26.8096  204.0719 C   0  0  0  0  0  0  0  0  0  0  0  0
  163.3250   26.6257  204.9104 O   0  0  0  0  0  0  0  0  0  0  0  0
  162.2112   25.8478  202.9260 C   0  0  0  0  0  0  0  0  0  0  0  0
  163.3684   25.8420  201.9256 C   0  0  0  0  0  0  0  0  0  0  0  0
  164.7231   25.5806  202.5947 C   0  0  0  0  0  0  0  0  0  0  0  0
  165.9318   25.7221  201.6647 C   0  0  0  0  0  0  0  0  0  0  0  0
  167.2648   25.3788  202.3315 C   0  0  0  0  0  0  0  0  0  0  0  0
  167.8858   24.0883  201.7860 C   0  0  0  0  0  0  0  0  0  0  0  0
  169.2783   24.2492  201.1576 C   0  0  0  0  0  0  0  0  0  0  0  0
  169.5356   23.4244  199.8891 C   0  0  0  0  0  0  0  0  0  0  0  0
  169.5296   24.2717  198.6142 C   0  0  0  0  0  0  0  0  0  0  0  0
  170.8029   25.1088  198.4775 C   0  0  0  0  0  0  0  0  0  0  0  0
  170.7710   26.0219  197.2453 C   0  0  0  0  0  0  0  0  0  0  0  0
  171.6374   27.2858  197.3419 C   0  0  0  0  0  0  0  0  0  0  0  0
  173.1507   27.0402  197.3221 C   0  0  0  0  0  0  0  0  0  0  0  0
  173.9544   28.3336  197.1650 C   0  0  0  0  0  0  0  0  0  0  0  0
  174.5000   28.8270  198.5057 C   0  0  0  0  0  0  0  0  0  0  0  0
  175.0595   30.2494  198.4239 C   0  0  0  0  0  0  0  0  0  0  0  0
  174.7279   31.1650  199.6129 C   0  0  0  0  0  0  0  0  0  0  0  0
  175.6141   31.0019  200.8525 C   0  0  0  0  0  0  0  0  0  0  0  0
  175.0444   30.1020  201.9566 C   0  0  0  0  0  0  0  0  0  0  0  0
  174.8932   30.8151  203.3035 C   0  0  0  0  0  0  0  0  0  0  0  0
  174.1611   29.9293  204.3157 C   0  0  0  0  0  0  0  0  0  0  0  0
  173.9823   30.5927  205.6844 C   0  0  0  0  0  0  0  0  0  0  0  0
  173.9359   29.5917  206.8412 C   0  0  0  0  0  0  0  0  0  0  0  0
  172.5546   29.5566  207.4946 C   0  0  0  0  0  0  0  0  0  0  0  0
  172.4675   28.4626  208.5475 C   0  0  0  0  0  0  0  0  0  0  0  0
  1  2  1  0
  1  6  1  6
 30  1  1  0
  3  2  1  0
  2 32  1  6
  4  3  1  0
  3 29  1  6
  5  4  1  0
  4 28  1  1
  5 27  1  1
  5 30  1  0
  6 31  1  0
  8  7  1  0
  9  8  1  0
 10  9  1  0
 11 10  1  0
 12 11  1  0
 13 12  1  0
 14 13  1  0
 15 14  1  0
 16 15  1  0
 17 16  1  0
 18 17  1  0
 19 18  1  0
 20 19  1  0
 21 20  1  0
 21 22  1  1
 23 21  1  0
 23 24  1  1
 25 23  1  0
 25 26  1  6
 25 40  1  0
 26 27  1  0
 32 33  1  0
 33 34  1  0
 34 35  2  0
 34 39  1  0
 35 36  1  0
 36 37  2  0
 37 38  1  0
 38 39  2  0
 40 41  1  0
 41 42  2  0
 41 43  1  0
 43 44  1  0
 44 45  1  0
 45 46  1  0
 46 47  1  0
 47 48  1  0
 48 49  1  0
 49 50  1  0
 50 51  1  0
 51 52  1  0
 52 53  1  0
 53 54  1  0
 54 55  1  0
 55 56  1  0
 56 57  1  0
 57 58  1  0
 58 59  1  0
 59 60  1  0
 60 61  1  0
 61 62  1  0
 62 63  1  0
 63 64  1  0
 64 65  1  0
 65 66  1  0
 66 67  1  0
M  END
$$$$
