
     RDKit          3D

 67 68  0  0  0  0  0  0  0  0999 V2000
  175.3151   25.6501  210.2283 C   0  0  1  0  0  0  0  0  0  0  0  0
  174.6015   25.2873  211.5654 C   0  0  1  0  0  0  0  0  0  0  0  0
  173.3425   24.4444  211.3271 C   0  0  1  0  0  0  0  0  0  0  0  0
  172.4173   25.0462  210.2586 C   0  0  2  0  0  0  0  0  0  0  0  0
  173.1038   26.1768  209.4576 C   0  0  1  0  0  0  0  0  0  0  0  0
  176.4338   24.6828  209.8150 C   0  0  0  0  0  0  0  0  0  0  0  0
  158.8681   31.0381  202.1354 C   0  0  0  0  0  0  0  0  0  0  0  0
  159.2990   31.6057  200.7910 C   0  0  0  0  0  0  0  0  0  0  0  0
  160.4158   32.6521  200.8862 C   0  0  0  0  0  0  0  0  0  0  0  0
  161.8129   32.1452  200.5065 C   0  0  0  0  0  0  0  0  0  0  0  0
  162.9877   33.0809  200.7935 C   0  0  0  0  0  0  0  0  0  0  0  0
  164.3481   32.3863  200.7013 C   0  0  0  0  0  0  0  0  0  0  0  0
  165.5022   33.3795  200.8644 C   0  0  0  0  0  0  0  0  0  0  0  0
  166.3538   33.1209  202.1132 C   0  0  0  0  0  0  0  0  0  0  0  0
  165.6049   33.1521  203.4508 C   0  0  0  0  0  0  0  0  0  0  0  0
  166.4902   33.1142  204.6982 C   0  0  0  0  0  0  0  0  0  0  0  0
  167.6513   32.1253  204.5835 C   0  0  0  0  0  0  0  0  0  0  0  0
  168.2393   31.8169  205.9618 C   0  0  0  0  0  0  0  0  0  0  0  0
  169.5711   31.0787  205.8494 C   0  0  0  0  0  0  0  0  0  0  0  0
  170.2844   30.8378  207.1832 C   0  0  0  0  0  0  0  0  0  0  0  0
  171.2596   29.6502  207.2174 C   0  0  1  0  0  0  0  0  0  0  0  0
  172.2413   29.8474  206.1861 O   0  0  0  0  0  0  0  0  0  0  0  0
  171.9805   29.3719  208.5595 C   0  0  1  0  0  0  0  0  0  0  0  0
  172.5444   30.5890  209.0964 O   0  0  0  0  0  0  0  0  0  0  0  0
  171.1364   28.6614  209.6548 C   0  0  2  0  0  0  0  0  0  0  0  0
  171.9103   27.8281  210.6960 C   0  0  0  0  0  0  0  0  0  0  0  0
  173.1698   27.3968  210.1920 O   0  0  0  0  0  0  0  0  0  0  0  0
  171.1901   25.4889  210.8602 O   0  0  0  0  0  0  0  0  0  0  0  0
  173.7320   23.1102  210.9442 O   0  0  0  0  0  0  0  0  0  0  0  0
  174.4220   25.7697  209.1014 O   0  0  0  0  0  0  0  0  0  0  0  0
  177.7215   25.2828  209.9458 O   0  0  0  0  0  0  0  0  0  0  0  0
  175.4289   24.5510  212.4839 O   0  0  0  0  0  0  0  0  0  0  0  0
  175.1306   23.1534  212.5029 C   0  0  0  0  0  0  0  0  0  0  0  0
  176.1819   22.3877  211.7341 C   0  0  0  0  0  0  0  0  0  0  0  0
  176.0130   21.0180  211.4735 C   0  0  0  0  0  0  0  0  0  0  0  0
  176.9664   20.3107  210.7409 C   0  0  0  0  0  0  0  0  0  0  0  0
  178.0967   20.9623  210.2541 C   0  0  0  0  0  0  0  0  0  0  0  0
  178.2783   22.3226  210.5046 C   0  0  0  0  0  0  0  0  0  0  0  0
  177.3243   23.0330  211.2393 C   0  0  0  0  0  0  0  0  0  0  0  0
  170.1321   27.8107  208.9962 N   0  0  0  0  0  0  0  0  0  0  0  0
  168.8564   27.6839  209.4923 C   0  0  0  0  0  0  0  0  0  0  0  0
  168.5959   27.7820  210.6892 O   0  0  0  0  0  0  0  0  0  0  0  0
  167.7855   27.4266  208.4530 C   0  0  0  0  0  0  0  0  0  0  0  0
  166.4727   28.1395  208.7820 C   0  0  0  0  0  0  0  0  0  0  0  0
  165.2432   27.2678  208.4992 C   0  0  0  0  0  0  0  0  0  0  0  0
  165.1763   25.9746  209.3170 C   0  0  0  0  0  0  0  0  0  0  0  0
  163.7800   25.3527  209.3717 C   0  0  0  0  0  0  0  0  0  0  0  0
  162.9646   25.6130  208.1007 C   0  0  0  0  0  0  0  0  0  0  0  0
  162.1051   24.4326  207.6235 C   0  0  0  0  0  0  0  0  0  0  0  0
  160.6642   24.7772  207.2232 C   0  0  0  0  0  0  0  0  0  0  0  0
  159.8434   23.5470  206.8279 C   0  0  0  0  0  0  0  0  0  0  0  0
  159.7634   23.3762  205.3097 C   0  0  0  0  0  0  0  0  0  0  0  0
  159.0142   22.1001  204.9051 C   0  0  0  0  0  0  0  0  0  0  0  0
  158.7769   21.9279  203.3980 C   0  0  0  0  0  0  0  0  0  0  0  0
  157.9842   23.0583  202.7309 C   0  0  0  0  0  0  0  0  0  0  0  0
  157.9130   22.9078  201.2091 C   0  0  0  0  0  0  0  0  0  0  0  0
  156.6980   23.6303  200.6255 C   0  0  0  0  0  0  0  0  0  0  0  0
  156.8484   23.9167  199.1295 C   0  0  0  0  0  0  0  0  0  0  0  0
  156.4879   25.3430  198.6848 C   0  0  0  0  0  0  0  0  0  0  0  0
  156.9402   25.7406  197.2757 C   0  0  0  0  0  0  0  0  0  0  0  0
  156.4492   27.1094  196.7870 C   0  0  0  0  0  0  0  0  0  0  0  0
  157.1556   28.2860  197.4669 C   0  0  0  0  0  0  0  0  0  0  0  0
  158.0940   29.0023  196.4913 C   0  0  0  0  0  0  0  0  0  0  0  0
  158.8610   30.1638  197.1301 C   0  0  0  0  0  0  0  0  0  0  0  0
  159.6466   31.0004  196.1176 C   0  0  0  0  0  0  0  0  0  0  0  0
  160.3679   32.1651  196.7953 C   0  0  0  0  0  0  0  0  0  0  0  0
  161.1390   33.0018  195.7861 C   0  0  0  0  0  0  0  0  0  0  0  0
  1  2  1  0
  1  6  1  6
 30  1  1  0
  3  2  1  0
  2 32  1  1
  4  3  1  0
  3 29  1  6
  5  4  1  0
  4 28  1  1
  5 27  1  1
  5 30  1  0
  6 31  1  0
  8  7  1  0
  9  8  1  0
 10  9  1  0
 11 10  1  0
 12 11  1  0
 13 12  1  0
 14 13  1  0
 15 14  1  0
 16 15  1  0
 17 16  1  0
 18 17  1  0
 19 18  1  0
 20 19  1  0
 21 20  1  0
 21 22  1  6
 23 21  1  0
 23 24  1  1
 25 23  1  0
 25 26  1  1
 25 40  1  0
 26 27  1  0
 32 33  1  0
 33 34  1  0
 34 35  2  0
 34 39  1  0
 35 36  1  0
 36 37  2  0
 37 38  1  0
 38 39  2  0
 40 41  1  0
 41 42  2  0
 41 43  1  0
 43 44  1  0
 44 45  1  0
 45 46  1  0
 46 47  1  0
 47 48  1  0
 48 49  1  0
 49 50  1  0
 50 51  1  0
 51 52  1  0
 52 53  1  0
 53 54  1  0
 54 55  1  0
 55 56  1  0
 56 57  1  0
 57 58  1  0
 58 59  1  0
 59 60  1  0
 60 61  1  0
 61 62  1  0
 62 63  1  0
 63 64  1  0
 64 65  1  0
 65 66  1  0
 66 67  1  0
M  END
$$$$
