
     RDKit          3D

 67 68  0  0  0  0  0  0  0  0999 V2000
  170.7342   30.3024  208.1276 C   0  0  1  0  0  0  0  0  0  0  0  0
  170.3300   30.5616  209.6102 C   0  0  1  0  0  0  0  0  0  0  0  0
  171.4372   30.1381  210.5834 C   0  0  1  0  0  0  0  0  0  0  0  0
  171.9604   28.7202  210.3083 C   0  0  2  0  0  0  0  0  0  0  0  0
  171.4811   28.1724  208.9439 C   0  0  1  0  0  0  0  0  0  0  0  0
  171.3722   31.5047  207.4168 C   0  0  0  0  0  0  0  0  0  0  0  0
  166.8021   14.3361  207.0193 C   0  0  0  0  0  0  0  0  0  0  0  0
  165.8074   15.0593  206.1233 C   0  0  0  0  0  0  0  0  0  0  0  0
  165.6079   16.5371  206.4804 C   0  0  0  0  0  0  0  0  0  0  0  0
  164.3394   16.8435  207.2865 C   0  0  0  0  0  0  0  0  0  0  0  0
  163.1328   17.3617  206.5033 C   0  0  0  0  0  0  0  0  0  0  0  0
  161.8916   17.5672  207.3743 C   0  0  0  0  0  0  0  0  0  0  0  0
  161.9620   18.8810  208.1579 C   0  0  0  0  0  0  0  0  0  0  0  0
  161.2328   20.0398  207.4669 C   0  0  0  0  0  0  0  0  0  0  0  0
  161.1991   21.3636  208.2397 C   0  0  0  0  0  0  0  0  0  0  0  0
  162.4673   21.6935  209.0296 C   0  0  0  0  0  0  0  0  0  0  0  0
  162.7347   23.1953  209.1407 C   0  0  0  0  0  0  0  0  0  0  0  0
  163.9280   23.4674  210.0587 C   0  0  0  0  0  0  0  0  0  0  0  0
  164.2248   24.9615  210.1622 C   0  0  0  0  0  0  0  0  0  0  0  0
  165.3616   25.4526  209.2606 C   0  0  0  0  0  0  0  0  0  0  0  0
  166.5722   26.0662  209.9819 C   0  0  1  0  0  0  0  0  0  0  0  0
  166.5144   25.6766  211.3643 O   0  0  0  0  0  0  0  0  0  0  0  0
  167.9732   25.7266  209.4159 C   0  0  1  0  0  0  0  0  0  0  0  0
  168.1642   24.2957  209.3541 O   0  0  0  0  0  0  0  0  0  0  0  0
  168.3268   26.3592  208.0404 C   0  0  2  0  0  0  0  0  0  0  0  0
  169.7548   26.9183  207.8801 C   0  0  0  0  0  0  0  0  0  0  0  0
  170.1224   27.7427  208.9808 O   0  0  0  0  0  0  0  0  0  0  0  0
  171.6039   27.8435  211.3893 O   0  0  0  0  0  0  0  0  0  0  0  0
  172.5217   31.0849  210.5071 O   0  0  0  0  0  0  0  0  0  0  0  0
  171.6283   29.1838  207.9511 O   0  0  0  0  0  0  0  0  0  0  0  0
  170.5431   31.9922  206.3631 O   0  0  0  0  0  0  0  0  0  0  0  0
  170.0267   31.9387  209.8971 O   0  0  0  0  0  0  0  0  0  0  0  0
  171.1890   32.7112  210.2055 C   0  0  0  0  0  0  0  0  0  0  0  0
  170.8374   33.8118  211.1789 C   0  0  0  0  0  0  0  0  0  0  0  0
  171.8137   34.7341  211.5897 C   0  0  0  0  0  0  0  0  0  0  0  0
  171.4898   35.7690  212.4671 C   0  0  0  0  0  0  0  0  0  0  0  0
  170.1868   35.9005  212.9405 C   0  0  0  0  0  0  0  0  0  0  0  0
  169.2060   34.9923  212.5412 C   0  0  0  0  0  0  0  0  0  0  0  0
  169.5288   33.9538  211.6627 C   0  0  0  0  0  0  0  0  0  0  0  0
  167.3503   27.4202  207.7460 N   0  0  0  0  0  0  0  0  0  0  0  0
  166.6351   27.4373  206.5722 C   0  0  0  0  0  0  0  0  0  0  0  0
  166.3303   26.4137  205.9645 O   0  0  0  0  0  0  0  0  0  0  0  0
  166.2345   28.8137  206.0840 C   0  0  0  0  0  0  0  0  0  0  0  0
  164.7162   28.9911  206.0261 C   0  0  0  0  0  0  0  0  0  0  0  0
  164.1949   29.1319  204.5909 C   0  0  0  0  0  0  0  0  0  0  0  0
  162.6730   29.2594  204.4747 C   0  0  0  0  0  0  0  0  0  0  0  0
  162.1694   29.3255  203.0320 C   0  0  0  0  0  0  0  0  0  0  0  0
  162.3654   30.7070  202.3982 C   0  0  0  0  0  0  0  0  0  0  0  0
  163.0995   30.7076  201.0488 C   0  0  0  0  0  0  0  0  0  0  0  0
  162.2932   31.2312  199.8525 C   0  0  0  0  0  0  0  0  0  0  0  0
  161.8862   32.6992  200.0029 C   0  0  0  0  0  0  0  0  0  0  0  0
  161.7747   33.4036  198.6494 C   0  0  0  0  0  0  0  0  0  0  0  0
  160.3202   33.7066  198.2676 C   0  0  0  0  0  0  0  0  0  0  0  0
  159.9783   33.5189  196.7826 C   0  0  0  0  0  0  0  0  0  0  0  0
  159.4098   34.7598  196.0841 C   0  0  0  0  0  0  0  0  0  0  0  0
  157.9878   34.5405  195.5612 C   0  0  0  0  0  0  0  0  0  0  0  0
  157.9608   34.3965  194.0389 C   0  0  0  0  0  0  0  0  0  0  0  0
  157.9181   32.9342  193.5886 C   0  0  0  0  0  0  0  0  0  0  0  0
  156.9525   32.6204  192.4348 C   0  0  0  0  0  0  0  0  0  0  0  0
  157.5455   31.8382  191.2580 C   0  0  0  0  0  0  0  0  0  0  0  0
  157.2627   32.4228  189.8682 C   0  0  0  0  0  0  0  0  0  0  0  0
  157.0424   31.3544  188.7933 C   0  0  0  0  0  0  0  0  0  0  0  0
  155.5597   31.2395  188.4276 C   0  0  0  0  0  0  0  0  0  0  0  0
  155.2693   30.1285  187.4144 C   0  0  0  0  0  0  0  0  0  0  0  0
  155.4715   28.7221  187.9830 C   0  0  0  0  0  0  0  0  0  0  0  0
  155.5966   27.6821  186.8700 C   0  0  0  0  0  0  0  0  0  0  0  0
  156.0333   26.3327  187.4192 C   0  0  0  0  0  0  0  0  0  0  0  0
  1  2  1  0
  1  6  1  1
 30  1  1  0
  3  2  1  0
  2 32  1  6
  4  3  1  0
  3 29  1  6
  5  4  1  0
  4 28  1  1
  5 27  1  1
  5 30  1  0
  6 31  1  0
  8  7  1  0
  9  8  1  0
 10  9  1  0
 11 10  1  0
 12 11  1  0
 13 12  1  0
 14 13  1  0
 15 14  1  0
 16 15  1  0
 17 16  1  0
 18 17  1  0
 19 18  1  0
 20 19  1  0
 21 20  1  0
 21 22  1  1
 23 21  1  0
 23 24  1  6
 25 23  1  0
 25 26  1  1
 25 40  1  0
 26 27  1  0
 32 33  1  0
 33 34  1  0
 34 35  2  0
 34 39  1  0
 35 36  1  0
 36 37  2  0
 37 38  1  0
 38 39  2  0
 40 41  1  0
 41 42  2  0
 41 43  1  0
 43 44  1  0
 44 45  1  0
 45 46  1  0
 46 47  1  0
 47 48  1  0
 48 49  1  0
 49 50  1  0
 50 51  1  0
 51 52  1  0
 52 53  1  0
 53 54  1  0
 54 55  1  0
 55 56  1  0
 56 57  1  0
 57 58  1  0
 58 59  1  0
 59 60  1  0
 60 61  1  0
 61 62  1  0
 62 63  1  0
 63 64  1  0
 64 65  1  0
 65 66  1  0
 66 67  1  0
M  END
$$$$
