
     RDKit          3D

 67 68  0  0  0  0  0  0  0  0999 V2000
  171.5609   28.4460  209.2336 C   0  0  1  0  0  0  0  0  0  0  0  0
  172.4385   29.0642  208.1038 C   0  0  1  0  0  0  0  0  0  0  0  0
  172.7915   30.5281  208.3952 C   0  0  1  0  0  0  0  0  0  0  0  0
  171.5652   31.3708  208.7774 C   0  0  2  0  0  0  0  0  0  0  0  0
  170.3253   30.4982  209.0814 C   0  0  1  0  0  0  0  0  0  0  0  0
  172.3474   27.7017  210.3224 C   0  0  0  0  0  0  0  0  0  0  0  0
  161.6985   26.5145  192.7054 C   0  0  0  0  0  0  0  0  0  0  0  0
  161.3888   27.9969  192.8531 C   0  0  0  0  0  0  0  0  0  0  0  0
  160.8485   28.3852  194.2346 C   0  0  0  0  0  0  0  0  0  0  0  0
  161.8060   29.2210  195.0936 C   0  0  0  0  0  0  0  0  0  0  0  0
  161.1727   30.2544  196.0258 C   0  0  0  0  0  0  0  0  0  0  0  0
  161.0988   29.7881  197.4813 C   0  0  0  0  0  0  0  0  0  0  0  0
  160.8485   30.9576  198.4377 C   0  0  0  0  0  0  0  0  0  0  0  0
  162.1169   31.7537  198.7682 C   0  0  0  0  0  0  0  0  0  0  0  0
  163.1047   31.0709  199.7216 C   0  0  0  0  0  0  0  0  0  0  0  0
  164.1663   31.9883  200.3321 C   0  0  0  0  0  0  0  0  0  0  0  0
  165.4708   31.2625  200.6650 C   0  0  0  0  0  0  0  0  0  0  0  0
  165.7727   31.3486  202.1624 C   0  0  0  0  0  0  0  0  0  0  0  0
  167.2583   31.5876  202.4207 C   0  0  0  0  0  0  0  0  0  0  0  0
  167.9245   30.5525  203.3322 C   0  0  0  0  0  0  0  0  0  0  0  0
  169.1617   31.0368  204.1050 C   0  0  1  0  0  0  0  0  0  0  0  0
  169.7709   32.1001  203.3536 O   0  0  0  0  0  0  0  0  0  0  0  0
  168.9388   31.5076  205.5635 C   0  0  1  0  0  0  0  0  0  0  0  0
  168.6023   32.9123  205.5992 O   0  0  0  0  0  0  0  0  0  0  0  0
  167.8983   30.7014  206.3908 C   0  0  2  0  0  0  0  0  0  0  0  0
  168.3149   30.2887  207.8169 C   0  0  0  0  0  0  0  0  0  0  0  0
  169.7075   30.0044  207.8954 O   0  0  0  0  0  0  0  0  0  0  0  0
  171.2949   32.3423  207.7540 O   0  0  0  0  0  0  0  0  0  0  0  0
  173.7698   30.5772  209.4529 O   0  0  0  0  0  0  0  0  0  0  0  0
  170.7110   29.4001  209.9036 O   0  0  0  0  0  0  0  0  0  0  0  0
  171.9385   26.3389  210.4266 O   0  0  0  0  0  0  0  0  0  0  0  0
  173.6806   28.3705  207.8881 O   0  0  0  0  0  0  0  0  0  0  0  0
  174.7644   28.9257  208.6363 C   0  0  0  0  0  0  0  0  0  0  0  0
  175.5193   27.8279  209.3487 C   0  0  0  0  0  0  0  0  0  0  0  0
  176.7078   28.1170  210.0390 C   0  0  0  0  0  0  0  0  0  0  0  0
  177.3956   27.1138  210.7218 C   0  0  0  0  0  0  0  0  0  0  0  0
  176.9032   25.8113  210.7297 C   0  0  0  0  0  0  0  0  0  0  0  0
  175.7237   25.5087  210.0489 C   0  0  0  0  0  0  0  0  0  0  0  0
  175.0334   26.5126  209.3632 C   0  0  0  0  0  0  0  0  0  0  0  0
  167.5169   29.5029  205.6266 N   0  0  0  0  0  0  0  0  0  0  0  0
  166.2407   28.9939  205.6718 C   0  0  0  0  0  0  0  0  0  0  0  0
  165.2823   29.5553  205.1463 O   0  0  0  0  0  0  0  0  0  0  0  0
  166.0996   27.6778  206.4075 C   0  0  0  0  0  0  0  0  0  0  0  0
  165.1469   26.7142  205.6977 C   0  0  0  0  0  0  0  0  0  0  0  0
  164.4963   25.7142  206.6611 C   0  0  0  0  0  0  0  0  0  0  0  0
  165.2944   25.4502  207.9414 C   0  0  0  0  0  0  0  0  0  0  0  0
  164.5920   24.5090  208.9213 C   0  0  0  0  0  0  0  0  0  0  0  0
  165.2349   23.1189  208.9727 C   0  0  0  0  0  0  0  0  0  0  0  0
  164.3849   22.0314  209.6469 C   0  0  0  0  0  0  0  0  0  0  0  0
  163.6869   22.4443  210.9498 C   0  0  0  0  0  0  0  0  0  0  0  0
  162.9782   21.2782  211.6434 C   0  0  0  0  0  0  0  0  0  0  0  0
  163.7407   20.7992  212.8802 C   0  0  0  0  0  0  0  0  0  0  0  0
  162.8143   20.1725  213.9302 C   0  0  0  0  0  0  0  0  0  0  0  0
  163.3753   18.9356  214.6464 C   0  0  0  0  0  0  0  0  0  0  0  0
  162.8040   17.5942  214.1717 C   0  0  0  0  0  0  0  0  0  0  0  0
  162.0103   16.8735  215.2645 C   0  0  0  0  0  0  0  0  0  0  0  0
  161.1267   15.7676  214.6859 C   0  0  0  0  0  0  0  0  0  0  0  0
  159.7697   16.2904  214.2082 C   0  0  0  0  0  0  0  0  0  0  0  0
  159.2515   15.6916  212.8909 C   0  0  0  0  0  0  0  0  0  0  0  0
  157.9091   16.2348  212.3898 C   0  0  0  0  0  0  0  0  0  0  0  0
  157.3900   15.6114  211.0877 C   0  0  0  0  0  0  0  0  0  0  0  0
  156.2958   14.5633  211.3102 C   0  0  0  0  0  0  0  0  0  0  0  0
  155.7941   14.0003  209.9772 C   0  0  0  0  0  0  0  0  0  0  0  0
  154.6161   13.0341  210.1320 C   0  0  0  0  0  0  0  0  0  0  0  0
  154.5230   12.0065  209.0017 C   0  0  0  0  0  0  0  0  0  0  0  0
  153.7099   12.5433  207.8241 C   0  0  0  0  0  0  0  0  0  0  0  0
  154.5250   12.5382  206.5400 C   0  0  0  0  0  0  0  0  0  0  0  0
  1  2  1  0
  1  6  1  1
 30  1  1  0
  3  2  1  0
  2 32  1  1
  4  3  1  0
  3 29  1  1
  5  4  1  0
  4 28  1  6
  5 27  1  6
  5 30  1  0
  6 31  1  0
  8  7  1  0
  9  8  1  0
 10  9  1  0
 11 10  1  0
 12 11  1  0
 13 12  1  0
 14 13  1  0
 15 14  1  0
 16 15  1  0
 17 16  1  0
 18 17  1  0
 19 18  1  0
 20 19  1  0
 21 20  1  0
 21 22  1  6
 23 21  1  0
 23 24  1  6
 25 23  1  0
 25 26  1  1
 25 40  1  0
 26 27  1  0
 32 33  1  0
 33 34  1  0
 34 35  2  0
 34 39  1  0
 35 36  1  0
 36 37  2  0
 37 38  1  0
 38 39  2  0
 40 41  1  0
 41 42  2  0
 41 43  1  0
 43 44  1  0
 44 45  1  0
 45 46  1  0
 46 47  1  0
 47 48  1  0
 48 49  1  0
 49 50  1  0
 50 51  1  0
 51 52  1  0
 52 53  1  0
 53 54  1  0
 54 55  1  0
 55 56  1  0
 56 57  1  0
 57 58  1  0
 58 59  1  0
 59 60  1  0
 60 61  1  0
 61 62  1  0
 62 63  1  0
 63 64  1  0
 64 65  1  0
 65 66  1  0
 66 67  1  0
M  END
$$$$
