
     RDKit          3D

 67 68  0  0  0  0  0  0  0  0999 V2000
  173.4099   28.2648  209.6642 C   0  0  1  0  0  0  0  0  0  0  0  0
  173.9526   27.9290  208.2425 C   0  0  1  0  0  0  0  0  0  0  0  0
  175.0700   28.8905  207.8189 C   0  0  1  0  0  0  0  0  0  0  0  0
  174.6930   30.3661  208.0207 C   0  0  2  0  0  0  0  0  0  0  0  0
  173.4192   30.5338  208.8812 C   0  0  1  0  0  0  0  0  0  0  0  0
  174.0739   27.4817  210.8060 C   0  0  0  0  0  0  0  0  0  0  0  0
  156.7955   31.0595  196.9743 C   0  0  0  0  0  0  0  0  0  0  0  0
  158.2484   31.1901  196.5416 C   0  0  0  0  0  0  0  0  0  0  0  0
  159.2544   31.0621  197.6917 C   0  0  0  0  0  0  0  0  0  0  0  0
  159.3975   29.6500  198.2734 C   0  0  0  0  0  0  0  0  0  0  0  0
  160.3778   29.4782  199.4341 C   0  0  0  0  0  0  0  0  0  0  0  0
  160.5323   28.0233  199.8825 C   0  0  0  0  0  0  0  0  0  0  0  0
  161.4272   27.9050  201.1195 C   0  0  0  0  0  0  0  0  0  0  0  0
  162.8597   27.4655  200.7927 C   0  0  0  0  0  0  0  0  0  0  0  0
  163.9086   27.7484  201.8746 C   0  0  0  0  0  0  0  0  0  0  0  0
  164.4157   29.1908  201.9340 C   0  0  0  0  0  0  0  0  0  0  0  0
  165.3439   29.4551  203.1206 C   0  0  0  0  0  0  0  0  0  0  0  0
  165.7387   30.9319  203.1823 C   0  0  0  0  0  0  0  0  0  0  0  0
  166.6900   31.2085  204.3440 C   0  0  0  0  0  0  0  0  0  0  0  0
  168.1496   31.4325  203.9371 C   0  0  0  0  0  0  0  0  0  0  0  0
  169.1823   30.5161  204.6125 C   0  0  1  0  0  0  0  0  0  0  0  0
  169.7622   29.6741  203.6021 O   0  0  0  0  0  0  0  0  0  0  0  0
  170.3155   31.2048  205.4125 C   0  0  1  0  0  0  0  0  0  0  0  0
  170.4151   32.6012  205.0549 O   0  0  0  0  0  0  0  0  0  0  0  0
  170.2417   31.0672  206.9594 C   0  0  2  0  0  0  0  0  0  0  0  0
  171.5176   31.4213  207.7494 C   0  0  0  0  0  0  0  0  0  0  0  0
  172.2298   30.2546  208.1468 O   0  0  0  0  0  0  0  0  0  0  0  0
  174.5668   31.0221  206.7487 O   0  0  0  0  0  0  0  0  0  0  0  0
  176.2658   28.5832  208.5632 O   0  0  0  0  0  0  0  0  0  0  0  0
  173.4924   29.6638  210.0074 O   0  0  0  0  0  0  0  0  0  0  0  0
  173.1487   26.6078  211.4507 O   0  0  0  0  0  0  0  0  0  0  0  0
  174.4815   26.5962  208.1227 O   0  0  0  0  0  0  0  0  0  0  0  0
  175.6120   26.3689  208.9671 C   0  0  0  0  0  0  0  0  0  0  0  0
  175.1547   26.0090  210.3613 C   0  0  0  0  0  0  0  0  0  0  0  0
  176.0073   25.3059  211.2281 C   0  0  0  0  0  0  0  0  0  0  0  0
  175.6020   24.9940  212.5259 C   0  0  0  0  0  0  0  0  0  0  0  0
  174.3439   25.3849  212.9771 C   0  0  0  0  0  0  0  0  0  0  0  0
  173.4859   26.0842  212.1278 C   0  0  0  0  0  0  0  0  0  0  0  0
  173.8900   26.3969  210.8265 C   0  0  0  0  0  0  0  0  0  0  0  0
  169.8271   29.6943  207.2900 N   0  0  0  0  0  0  0  0  0  0  0  0
  168.5722   29.4170  207.7777 C   0  0  0  0  0  0  0  0  0  0  0  0
  167.9368   30.2110  208.4675 O   0  0  0  0  0  0  0  0  0  0  0  0
  168.0180   28.0616  207.3920 C   0  0  0  0  0  0  0  0  0  0  0  0
  167.2699   27.3897  208.5448 C   0  0  0  0  0  0  0  0  0  0  0  0
  168.1318   26.3595  209.2843 C   0  0  0  0  0  0  0  0  0  0  0  0
  168.1080   24.9539  208.6764 C   0  0  0  0  0  0  0  0  0  0  0  0
  166.7087   24.3416  208.5966 C   0  0  0  0  0  0  0  0  0  0  0  0
  166.7246   22.8862  208.1172 C   0  0  0  0  0  0  0  0  0  0  0  0
  165.5195   22.0410  208.5568 C   0  0  0  0  0  0  0  0  0  0  0  0
  165.5800   20.5527  208.1873 C   0  0  0  0  0  0  0  0  0  0  0  0
  164.3443   19.7730  208.6442 C   0  0  0  0  0  0  0  0  0  0  0  0
  164.2680   18.3899  207.9947 C   0  0  0  0  0  0  0  0  0  0  0  0
  163.0625   17.5796  208.4881 C   0  0  0  0  0  0  0  0  0  0  0  0
  162.1216   17.0666  207.3886 C   0  0  0  0  0  0  0  0  0  0  0  0
  161.0943   16.0243  207.8458 C   0  0  0  0  0  0  0  0  0  0  0  0
  159.7962   16.6600  208.3501 C   0  0  0  0  0  0  0  0  0  0  0  0
  159.7988   16.8212  209.8708 C   0  0  0  0  0  0  0  0  0  0  0  0
  158.3874   16.9436  210.4503 C   0  0  0  0  0  0  0  0  0  0  0  0
  158.0941   18.2405  211.2213 C   0  0  0  0  0  0  0  0  0  0  0  0
  156.6365   18.7134  211.2081 C   0  0  0  0  0  0  0  0  0  0  0  0
  156.0241   19.0012  212.5848 C   0  0  0  0  0  0  0  0  0  0  0  0
  154.5754   19.4930  212.5142 C   0  0  0  0  0  0  0  0  0  0  0  0
  154.4603   20.7411  211.6343 C   0  0  0  0  0  0  0  0  0  0  0  0
  153.5154   21.8016  212.2067 C   0  0  0  0  0  0  0  0  0  0  0  0
  153.7286   23.1919  211.6034 C   0  0  0  0  0  0  0  0  0  0  0  0
  154.1471   24.2049  212.6687 C   0  0  0  0  0  0  0  0  0  0  0  0
  154.4202   25.5706  212.0574 C   0  0  0  0  0  0  0  0  0  0  0  0
  1  2  1  0
  1  6  1  1
 30  1  1  0
  3  2  1  0
  2 32  1  1
  4  3  1  0
  3 29  1  1
  5  4  1  0
  4 28  1  6
  5 27  1  6
  5 30  1  0
  6 31  1  0
  8  7  1  0
  9  8  1  0
 10  9  1  0
 11 10  1  0
 12 11  1  0
 13 12  1  0
 14 13  1  0
 15 14  1  0
 16 15  1  0
 17 16  1  0
 18 17  1  0
 19 18  1  0
 20 19  1  0
 21 20  1  0
 21 22  1  6
 23 21  1  0
 23 24  1  1
 25 23  1  0
 25 26  1  1
 25 40  1  0
 26 27  1  0
 32 33  1  0
 33 34  1  0
 34 35  2  0
 34 39  1  0
 35 36  1  0
 36 37  2  0
 37 38  1  0
 38 39  2  0
 40 41  1  0
 41 42  2  0
 41 43  1  0
 43 44  1  0
 44 45  1  0
 45 46  1  0
 46 47  1  0
 47 48  1  0
 48 49  1  0
 49 50  1  0
 50 51  1  0
 51 52  1  0
 52 53  1  0
 53 54  1  0
 54 55  1  0
 55 56  1  0
 56 57  1  0
 57 58  1  0
 58 59  1  0
 59 60  1  0
 60 61  1  0
 61 62  1  0
 62 63  1  0
 63 64  1  0
 64 65  1  0
 65 66  1  0
 66 67  1  0
M  END
$$$$
