
     RDKit          3D

 67 68  0  0  0  0  0  0  0  0999 V2000
  171.5031   28.0198  211.0491 C   0  0  1  0  0  0  0  0  0  0  0  0
  172.1534   26.7327  210.4583 C   0  0  1  0  0  0  0  0  0  0  0  0
  173.6474   26.9304  210.1732 C   0  0  1  0  0  0  0  0  0  0  0  0
  173.9361   28.2099  209.3737 C   0  0  2  0  0  0  0  0  0  0  0  0
  172.7107   29.1512  209.3105 C   0  0  1  0  0  0  0  0  0  0  0  0
  171.4580   28.0699  212.5831 C   0  0  0  0  0  0  0  0  0  0  0  0
  155.6052   20.5358  211.1888 C   0  0  0  0  0  0  0  0  0  0  0  0
  156.6232   21.0595  210.1865 C   0  0  0  0  0  0  0  0  0  0  0  0
  157.9397   20.2737  210.1680 C   0  0  0  0  0  0  0  0  0  0  0  0
  158.9559   20.7363  209.1162 C   0  0  0  0  0  0  0  0  0  0  0  0
  160.4008   20.2721  209.3020 C   0  0  0  0  0  0  0  0  0  0  0  0
  161.4284   21.3677  209.0097 C   0  0  0  0  0  0  0  0  0  0  0  0
  162.8625   20.8556  209.1723 C   0  0  0  0  0  0  0  0  0  0  0  0
  163.8992   21.7079  208.4303 C   0  0  0  0  0  0  0  0  0  0  0  0
  164.0988   21.3756  206.9469 C   0  0  0  0  0  0  0  0  0  0  0  0
  165.0397   22.3127  206.1866 C   0  0  0  0  0  0  0  0  0  0  0  0
  165.6963   23.3643  207.0822 C   0  0  0  0  0  0  0  0  0  0  0  0
  166.7950   24.1125  206.3247 C   0  0  0  0  0  0  0  0  0  0  0  0
  167.3324   25.2888  207.1362 C   0  0  0  0  0  0  0  0  0  0  0  0
  167.4971   26.5902  206.3454 C   0  0  0  0  0  0  0  0  0  0  0  0
  168.3960   27.6575  206.9900 C   0  0  1  0  0  0  0  0  0  0  0  0
  168.2801   27.5374  208.4177 O   0  0  0  0  0  0  0  0  0  0  0  0
  169.8943   27.6434  206.5984 C   0  0  1  0  0  0  0  0  0  0  0  0
  170.1264   26.7268  205.5058 O   0  0  0  0  0  0  0  0  0  0  0  0
  170.5267   29.0237  206.2637 C   0  0  2  0  0  0  0  0  0  0  0  0
  171.5418   29.5866  207.2786 C   0  0  0  0  0  0  0  0  0  0  0  0
  171.7311   28.7018  208.3775 O   0  0  0  0  0  0  0  0  0  0  0  0
  174.4186   27.8750  208.0626 O   0  0  0  0  0  0  0  0  0  0  0  0
  174.3675   26.9588  211.4219 O   0  0  0  0  0  0  0  0  0  0  0  0
  172.1207   29.2455  210.6041 O   0  0  0  0  0  0  0  0  0  0  0  0
  171.5152   29.4110  213.0665 O   0  0  0  0  0  0  0  0  0  0  0  0
  172.0406   25.5805  211.3129 O   0  0  0  0  0  0  0  0  0  0  0  0
  172.8717   25.6651  212.4725 C   0  0  0  0  0  0  0  0  0  0  0  0
  173.7477   26.8936  212.3949 C   0  0  0  0  0  0  0  0  0  0  0  0
  173.8551   27.6134  211.1937 C   0  0  0  0  0  0  0  0  0  0  0  0
  174.6404   28.7640  211.1219 C   0  0  0  0  0  0  0  0  0  0  0  0
  175.3233   29.2142  212.2490 C   0  0  0  0  0  0  0  0  0  0  0  0
  175.2261   28.5101  213.4494 C   0  0  0  0  0  0  0  0  0  0  0  0
  174.4403   27.3562  213.5230 C   0  0  0  0  0  0  0  0  0  0  0  0
  169.4442   30.0002  206.0620 N   0  0  0  0  0  0  0  0  0  0  0  0
  168.3249   29.6950  205.3246 C   0  0  0  0  0  0  0  0  0  0  0  0
  168.1013   28.5668  204.8920 O   0  0  0  0  0  0  0  0  0  0  0  0
  167.3737   30.8502  205.0927 C   0  0  0  0  0  0  0  0  0  0  0  0
  167.8653   31.7972  203.9966 C   0  0  0  0  0  0  0  0  0  0  0  0
  166.7586   32.7248  203.4806 C   0  0  0  0  0  0  0  0  0  0  0  0
  166.4639   32.5948  201.9833 C   0  0  0  0  0  0  0  0  0  0  0  0
  165.7230   33.7968  201.3953 C   0  0  0  0  0  0  0  0  0  0  0  0
  165.2897   33.5737  199.9425 C   0  0  0  0  0  0  0  0  0  0  0  0
  163.7975   33.8085  199.6631 C   0  0  0  0  0  0  0  0  0  0  0  0
  163.1037   32.7386  198.8091 C   0  0  0  0  0  0  0  0  0  0  0  0
  163.4829   32.8179  197.3282 C   0  0  0  0  0  0  0  0  0  0  0  0
  162.7166   31.7963  196.4857 C   0  0  0  0  0  0  0  0  0  0  0  0
  163.2420   30.3683  196.6803 C   0  0  0  0  0  0  0  0  0  0  0  0
  162.8805   29.7124  198.0206 C   0  0  0  0  0  0  0  0  0  0  0  0
  162.8921   28.1791  198.0186 C   0  0  0  0  0  0  0  0  0  0  0  0
  161.6194   27.5807  198.6232 C   0  0  0  0  0  0  0  0  0  0  0  0
  161.8226   26.1238  199.0413 C   0  0  0  0  0  0  0  0  0  0  0  0
  160.9890   25.7436  200.2675 C   0  0  0  0  0  0  0  0  0  0  0  0
  160.0793   26.8504  200.8238 C   0  0  0  0  0  0  0  0  0  0  0  0
  159.1858   26.4539  202.0040 C   0  0  0  0  0  0  0  0  0  0  0  0
  158.0616   27.4417  202.3411 C   0  0  0  0  0  0  0  0  0  0  0  0
  158.5731   28.8008  202.8278 C   0  0  0  0  0  0  0  0  0  0  0  0
  157.8523   29.2335  204.1079 C   0  0  0  0  0  0  0  0  0  0  0  0
  157.9689   30.7339  204.3916 C   0  0  0  0  0  0  0  0  0  0  0  0
  156.8924   31.2552  205.3464 C   0  0  0  0  0  0  0  0  0  0  0  0
  157.4676   32.2653  206.3389 C   0  0  0  0  0  0  0  0  0  0  0  0
  158.0066   33.4963  205.6267 C   0  0  0  0  0  0  0  0  0  0  0  0
  1  2  1  0
  1  6  1  1
 30  1  1  0
  3  2  1  0
  2 32  1  1
  4  3  1  0
  3 29  1  1
  5  4  1  0
  4 28  1  6
  5 27  1  6
  5 30  1  0
  6 31  1  0
  8  7  1  0
  9  8  1  0
 10  9  1  0
 11 10  1  0
 12 11  1  0
 13 12  1  0
 14 13  1  0
 15 14  1  0
 16 15  1  0
 17 16  1  0
 18 17  1  0
 19 18  1  0
 20 19  1  0
 21 20  1  0
 21 22  1  1
 23 21  1  0
 23 24  1  6
 25 23  1  0
 25 26  1  1
 25 40  1  0
 26 27  1  0
 32 33  1  0
 33 34  1  0
 34 35  2  0
 34 39  1  0
 35 36  1  0
 36 37  2  0
 37 38  1  0
 38 39  2  0
 40 41  1  0
 41 42  2  0
 41 43  1  0
 43 44  1  0
 44 45  1  0
 45 46  1  0
 46 47  1  0
 47 48  1  0
 48 49  1  0
 49 50  1  0
 50 51  1  0
 51 52  1  0
 52 53  1  0
 53 54  1  0
 54 55  1  0
 55 56  1  0
 56 57  1  0
 57 58  1  0
 58 59  1  0
 59 60  1  0
 60 61  1  0
 61 62  1  0
 62 63  1  0
 63 64  1  0
 64 65  1  0
 65 66  1  0
 66 67  1  0
M  END
$$$$
