
     RDKit          3D

 67 68  0  0  0  0  0  0  0  0999 V2000
  171.4225   29.7286  210.6220 C   0  0  1  0  0  0  0  0  0  0  0  0
  172.0496   28.5686  209.7914 C   0  0  1  0  0  0  0  0  0  0  0  0
  173.4331   28.9436  209.2457 C   0  0  1  0  0  0  0  0  0  0  0  0
  173.4435   30.3070  208.5378 C   0  0  2  0  0  0  0  0  0  0  0  0
  172.1539   31.1171  208.8058 C   0  0  1  0  0  0  0  0  0  0  0  0
  171.6826   29.6492  212.1332 C   0  0  0  0  0  0  0  0  0  0  0  0
  159.5743   30.3882  195.0316 C   0  0  0  0  0  0  0  0  0  0  0  0
  160.0338   30.1031  196.4539 C   0  0  0  0  0  0  0  0  0  0  0  0
  159.8457   31.2814  197.4168 C   0  0  0  0  0  0  0  0  0  0  0  0
  161.1457   31.9302  197.9089 C   0  0  0  0  0  0  0  0  0  0  0  0
  161.0060   33.1346  198.8404 C   0  0  0  0  0  0  0  0  0  0  0  0
  162.2497   33.3819  199.6968 C   0  0  0  0  0  0  0  0  0  0  0  0
  163.5378   33.1040  198.9166 C   0  0  0  0  0  0  0  0  0  0  0  0
  164.8100   33.3643  199.7325 C   0  0  0  0  0  0  0  0  0  0  0  0
  165.4220   32.1405  200.4243 C   0  0  0  0  0  0  0  0  0  0  0  0
  166.9215   32.2338  200.7144 C   0  0  0  0  0  0  0  0  0  0  0  0
  167.4577   31.0401  201.5061 C   0  0  0  0  0  0  0  0  0  0  0  0
  168.9569   31.1934  201.7699 C   0  0  0  0  0  0  0  0  0  0  0  0
  169.5827   29.8764  202.2228 C   0  0  0  0  0  0  0  0  0  0  0  0
  168.8244   29.1591  203.3437 C   0  0  0  0  0  0  0  0  0  0  0  0
  169.5934   28.9732  204.6615 C   0  0  1  0  0  0  0  0  0  0  0  0
  170.5021   27.8716  204.4979 O   0  0  0  0  0  0  0  0  0  0  0  0
  170.3719   30.1992  205.1992 C   0  0  1  0  0  0  0  0  0  0  0  0
  170.9440   30.9568  204.1100 O   0  0  0  0  0  0  0  0  0  0  0  0
  169.5813   31.1531  206.1385 C   0  0  2  0  0  0  0  0  0  0  0  0
  170.3279   31.6807  207.3801 C   0  0  0  0  0  0  0  0  0  0  0  0
  171.0493   30.6450  208.0383 O   0  0  0  0  0  0  0  0  0  0  0  0
  173.6799   30.1316  207.1315 O   0  0  0  0  0  0  0  0  0  0  0  0
  174.3841   28.9458  210.3291 O   0  0  0  0  0  0  0  0  0  0  0  0
  171.8300   31.0441  210.1915 O   0  0  0  0  0  0  0  0  0  0  0  0
  170.6516   30.2956  212.8780 O   0  0  0  0  0  0  0  0  0  0  0  0
  172.2108   27.3454  210.5320 O   0  0  0  0  0  0  0  0  0  0  0  0
  173.4910   26.7411  210.3351 C   0  0  0  0  0  0  0  0  0  0  0  0
  173.8030   25.8027  211.4772 C   0  0  0  0  0  0  0  0  0  0  0  0
  173.1576   25.9530  212.7155 C   0  0  0  0  0  0  0  0  0  0  0  0
  173.4206   25.0737  213.7659 C   0  0  0  0  0  0  0  0  0  0  0  0
  174.3259   24.0299  213.5922 C   0  0  0  0  0  0  0  0  0  0  0  0
  174.9746   23.8674  212.3678 C   0  0  0  0  0  0  0  0  0  0  0  0
  174.7130   24.7482  211.3142 C   0  0  0  0  0  0  0  0  0  0  0  0
  168.3445   30.4772  206.5621 N   0  0  0  0  0  0  0  0  0  0  0  0
  167.1127   30.8632  206.0895 C   0  0  0  0  0  0  0  0  0  0  0  0
  166.9719   31.7366  205.2367 O   0  0  0  0  0  0  0  0  0  0  0  0
  165.9345   30.1228  206.6869 C   0  0  0  0  0  0  0  0  0  0  0  0
  164.9607   29.6215  205.6190 C   0  0  0  0  0  0  0  0  0  0  0  0
  165.0785   28.1117  205.3779 C   0  0  0  0  0  0  0  0  0  0  0  0
  164.1808   27.5724  204.2603 C   0  0  0  0  0  0  0  0  0  0  0  0
  164.3646   26.0781  203.9904 C   0  0  0  0  0  0  0  0  0  0  0  0
  163.4732   25.5667  202.8537 C   0  0  0  0  0  0  0  0  0  0  0  0
  162.5360   24.4091  203.2297 C   0  0  0  0  0  0  0  0  0  0  0  0
  162.5897   23.9584  204.6957 C   0  0  0  0  0  0  0  0  0  0  0  0
  161.6111   22.8235  205.0081 C   0  0  0  0  0  0  0  0  0  0  0  0
  161.1850   22.8235  206.4776 C   0  0  0  0  0  0  0  0  0  0  0  0
  162.2554   22.2191  207.3952 C   0  0  0  0  0  0  0  0  0  0  0  0
  161.7714   21.0859  208.3112 C   0  0  0  0  0  0  0  0  0  0  0  0
  162.8826   20.3073  209.0254 C   0  0  0  0  0  0  0  0  0  0  0  0
  162.3353   19.2866  210.0264 C   0  0  0  0  0  0  0  0  0  0  0  0
  161.1395   19.8403  210.8024 C   0  0  0  0  0  0  0  0  0  0  0  0
  161.0835   19.3230  212.2419 C   0  0  0  0  0  0  0  0  0  0  0  0
  159.7251   19.4619  212.9472 C   0  0  0  0  0  0  0  0  0  0  0  0
  158.7786   18.2633  212.8214 C   0  0  0  0  0  0  0  0  0  0  0  0
  159.2470   16.9775  213.5149 C   0  0  0  0  0  0  0  0  0  0  0  0
  158.2212   16.4113  214.5013 C   0  0  0  0  0  0  0  0  0  0  0  0
  156.8524   16.2434  213.8354 C   0  0  0  0  0  0  0  0  0  0  0  0
  156.4377   14.7793  213.6624 C   0  0  0  0  0  0  0  0  0  0  0  0
  156.2000   14.3856  212.2027 C   0  0  0  0  0  0  0  0  0  0  0  0
  155.8074   12.9137  212.0780 C   0  0  0  0  0  0  0  0  0  0  0  0
  155.5984   12.5174  210.6246 C   0  0  0  0  0  0  0  0  0  0  0  0
  1  2  1  0
  1  6  1  1
 30  1  1  0
  3  2  1  0
  2 32  1  1
  4  3  1  0
  3 29  1  1
  5  4  1  0
  4 28  1  6
  5 27  1  6
  5 30  1  0
  6 31  1  0
  8  7  1  0
  9  8  1  0
 10  9  1  0
 11 10  1  0
 12 11  1  0
 13 12  1  0
 14 13  1  0
 15 14  1  0
 16 15  1  0
 17 16  1  0
 18 17  1  0
 19 18  1  0
 20 19  1  0
 21 20  1  0
 21 22  1  6
 23 21  1  0
 23 24  1  6
 25 23  1  0
 25 26  1  1
 25 40  1  0
 26 27  1  0
 32 33  1  0
 33 34  1  0
 34 35  2  0
 34 39  1  0
 35 36  1  0
 36 37  2  0
 37 38  1  0
 38 39  2  0
 40 41  1  0
 41 42  2  0
 41 43  1  0
 43 44  1  0
 44 45  1  0
 45 46  1  0
 46 47  1  0
 47 48  1  0
 48 49  1  0
 49 50  1  0
 50 51  1  0
 51 52  1  0
 52 53  1  0
 53 54  1  0
 54 55  1  0
 55 56  1  0
 56 57  1  0
 57 58  1  0
 58 59  1  0
 59 60  1  0
 60 61  1  0
 61 62  1  0
 62 63  1  0
 63 64  1  0
 64 65  1  0
 65 66  1  0
 66 67  1  0
M  END
$$$$
