
     RDKit          3D

 67 68  0  0  0  0  0  0  0  0999 V2000
  172.6029   28.3403  211.8100 C   0  0  1  0  0  0  0  0  0  0  0  0
  173.6419   27.2757  211.3455 C   0  0  1  0  0  0  0  0  0  0  0  0
  174.9963   27.9123  211.0096 C   0  0  1  0  0  0  0  0  0  0  0  0
  174.8683   29.1232  210.0729 C   0  0  2  0  0  0  0  0  0  0  0  0
  173.4060   29.6071  209.9361 C   0  0  1  0  0  0  0  0  0  0  0  0
  172.5222   28.5374  213.3307 C   0  0  0  0  0  0  0  0  0  0  0  0
  157.6006   15.6535  206.5244 C   0  0  0  0  0  0  0  0  0  0  0  0
  157.7764   16.0586  207.9805 C   0  0  0  0  0  0  0  0  0  0  0  0
  158.0373   17.5558  208.1830 C   0  0  0  0  0  0  0  0  0  0  0  0
  159.5145   17.9673  208.1449 C   0  0  0  0  0  0  0  0  0  0  0  0
  160.1536   18.3677  209.4751 C   0  0  0  0  0  0  0  0  0  0  0  0
  160.6644   19.8100  209.4884 C   0  0  0  0  0  0  0  0  0  0  0  0
  162.1923   19.8679  209.5740 C   0  0  0  0  0  0  0  0  0  0  0  0
  162.8185   20.8596  208.5858 C   0  0  0  0  0  0  0  0  0  0  0  0
  163.2602   22.2033  209.1774 C   0  0  0  0  0  0  0  0  0  0  0  0
  164.7690   22.4576  209.1710 C   0  0  0  0  0  0  0  0  0  0  0  0
  165.1312   23.9304  208.9737 C   0  0  0  0  0  0  0  0  0  0  0  0
  166.2148   24.0841  207.9045 C   0  0  0  0  0  0  0  0  0  0  0  0
  166.6234   25.5446  207.7281 C   0  0  0  0  0  0  0  0  0  0  0  0
  167.5249   26.0957  208.8371 C   0  0  0  0  0  0  0  0  0  0  0  0
  168.0715   27.5149  208.6137 C   0  0  1  0  0  0  0  0  0  0  0  0
  167.1970   28.4412  209.2795 O   0  0  0  0  0  0  0  0  0  0  0  0
  169.5305   27.7835  209.0583 C   0  0  1  0  0  0  0  0  0  0  0  0
  170.1341   26.5784  209.5790 O   0  0  0  0  0  0  0  0  0  0  0  0
  170.4660   28.4146  207.9889 C   0  0  2  0  0  0  0  0  0  0  0  0
  171.5159   29.4245  208.4943 C   0  0  0  0  0  0  0  0  0  0  0  0
  172.6371   28.7689  209.0769 O   0  0  0  0  0  0  0  0  0  0  0  0
  175.4519   28.8230  208.7948 O   0  0  0  0  0  0  0  0  0  0  0  0
  175.6507   28.3048  212.2327 O   0  0  0  0  0  0  0  0  0  0  0  0
  172.7986   29.6444  211.2245 O   0  0  0  0  0  0  0  0  0  0  0  0
  171.1723   28.6763  213.7711 O   0  0  0  0  0  0  0  0  0  0  0  0
  173.8945   26.2472  212.3196 O   0  0  0  0  0  0  0  0  0  0  0  0
  174.5897   25.1238  211.7742 C   0  0  0  0  0  0  0  0  0  0  0  0
  175.4888   24.5110  212.8224 C   0  0  0  0  0  0  0  0  0  0  0  0
  175.5184   25.0343  214.1254 C   0  0  0  0  0  0  0  0  0  0  0  0
  176.3256   24.4567  215.1054 C   0  0  0  0  0  0  0  0  0  0  0  0
  177.1085   23.3464  214.7996 C   0  0  0  0  0  0  0  0  0  0  0  0
  177.0895   22.8151  213.5098 C   0  0  0  0  0  0  0  0  0  0  0  0
  176.2818   23.3931  212.5259 C   0  0  0  0  0  0  0  0  0  0  0  0
  169.6352   29.0500  206.9535 N   0  0  0  0  0  0  0  0  0  0  0  0
  169.7637   28.7239  205.6243 C   0  0  0  0  0  0  0  0  0  0  0  0
  170.6241   27.9506  205.2099 O   0  0  0  0  0  0  0  0  0  0  0  0
  168.7561   29.3776  204.7021 C   0  0  0  0  0  0  0  0  0  0  0  0
  167.6125   28.4333  204.3273 C   0  0  0  0  0  0  0  0  0  0  0  0
  166.3443   29.1842  203.9042 C   0  0  0  0  0  0  0  0  0  0  0  0
  166.1432   29.2938  202.3898 C   0  0  0  0  0  0  0  0  0  0  0  0
  164.7607   28.8403  201.9182 C   0  0  0  0  0  0  0  0  0  0  0  0
  164.8058   28.0935  200.5808 C   0  0  0  0  0  0  0  0  0  0  0  0
  164.4939   28.9500  199.3443 C   0  0  0  0  0  0  0  0  0  0  0  0
  163.0294   28.9486  198.8856 C   0  0  0  0  0  0  0  0  0  0  0  0
  162.5014   30.3499  198.5681 C   0  0  0  0  0  0  0  0  0  0  0  0
  161.0437   30.3208  198.1044 C   0  0  0  0  0  0  0  0  0  0  0  0
  160.0594   30.5385  199.2608 C   0  0  0  0  0  0  0  0  0  0  0  0
  158.5839   30.2792  198.9248 C   0  0  0  0  0  0  0  0  0  0  0  0
  158.3424   29.3888  197.7001 C   0  0  0  0  0  0  0  0  0  0  0  0
  157.0514   29.7458  196.9589 C   0  0  0  0  0  0  0  0  0  0  0  0
  157.3372   30.4516  195.6327 C   0  0  0  0  0  0  0  0  0  0  0  0
  156.7061   31.8443  195.5613 C   0  0  0  0  0  0  0  0  0  0  0  0
  156.3103   32.3250  194.1563 C   0  0  0  0  0  0  0  0  0  0  0  0
  156.6915   33.7681  193.8091 C   0  0  0  0  0  0  0  0  0  0  0  0
  155.5237   34.6827  193.4177 C   0  0  0  0  0  0  0  0  0  0  0  0
  155.8272   36.1714  193.6108 C   0  0  0  0  0  0  0  0  0  0  0  0
  156.8095   36.6749  192.5493 C   0  0  0  0  0  0  0  0  0  0  0  0
  157.1792   38.1515  192.7170 C   0  0  0  0  0  0  0  0  0  0  0  0
  158.2541   38.6221  191.7345 C   0  0  0  0  0  0  0  0  0  0  0  0
  159.3949   39.3392  192.4559 C   0  0  0  0  0  0  0  0  0  0  0  0
  160.3965   39.9192  191.4691 C   0  0  0  0  0  0  0  0  0  0  0  0
  1  2  1  0
  1  6  1  1
 30  1  1  0
  3  2  1  0
  2 32  1  1
  4  3  1  0
  3 29  1  1
  5  4  1  0
  4 28  1  6
  5 27  1  6
  5 30  1  0
  6 31  1  0
  8  7  1  0
  9  8  1  0
 10  9  1  0
 11 10  1  0
 12 11  1  0
 13 12  1  0
 14 13  1  0
 15 14  1  0
 16 15  1  0
 17 16  1  0
 18 17  1  0
 19 18  1  0
 20 19  1  0
 21 20  1  0
 21 22  1  1
 23 21  1  0
 23 24  1  6
 25 23  1  0
 25 26  1  1
 25 40  1  0
 26 27  1  0
 32 33  1  0
 33 34  1  0
 34 35  2  0
 34 39  1  0
 35 36  1  0
 36 37  2  0
 37 38  1  0
 38 39  2  0
 40 41  1  0
 41 42  2  0
 41 43  1  0
 43 44  1  0
 44 45  1  0
 45 46  1  0
 46 47  1  0
 47 48  1  0
 48 49  1  0
 49 50  1  0
 50 51  1  0
 51 52  1  0
 52 53  1  0
 53 54  1  0
 54 55  1  0
 55 56  1  0
 56 57  1  0
 57 58  1  0
 58 59  1  0
 59 60  1  0
 60 61  1  0
 61 62  1  0
 62 63  1  0
 63 64  1  0
 64 65  1  0
 65 66  1  0
 66 67  1  0
M  END
$$$$
