
     RDKit          3D

 67 68  0  0  0  0  0  0  0  0999 V2000
  167.7111   29.1612  202.3084 C   0  0  1  0  0  0  0  0  0  0  0  0
  166.6464   30.1823  202.8110 C   0  0  1  0  0  0  0  0  0  0  0  0
  167.0060   31.6197  202.4145 C   0  0  1  0  0  0  0  0  0  0  0  0
  168.4545   31.9895  202.7680 C   0  0  2  0  0  0  0  0  0  0  0  0
  169.2994   30.7519  203.1502 C   0  0  1  0  0  0  0  0  0  0  0  0
  167.3948   28.5212  200.9490 C   0  0  0  0  0  0  0  0  0  0  0  0
  173.2008   29.0308  221.7457 C   0  0  0  0  0  0  0  0  0  0  0  0
  174.2072   28.2700  220.8951 C   0  0  0  0  0  0  0  0  0  0  0  0
  173.8327   28.1897  219.4104 C   0  0  0  0  0  0  0  0  0  0  0  0
  174.8425   27.4467  218.5266 C   0  0  0  0  0  0  0  0  0  0  0  0
  174.2996   26.2998  217.6734 C   0  0  0  0  0  0  0  0  0  0  0  0
  172.9269   26.5973  217.0663 C   0  0  0  0  0  0  0  0  0  0  0  0
  173.0042   26.7586  215.5454 C   0  0  0  0  0  0  0  0  0  0  0  0
  173.4579   28.1559  215.1054 C   0  0  0  0  0  0  0  0  0  0  0  0
  172.5875   28.8371  214.0427 C   0  0  0  0  0  0  0  0  0  0  0  0
  172.9573   30.2873  213.7243 C   0  0  0  0  0  0  0  0  0  0  0  0
  172.0274   30.9349  212.6971 C   0  0  0  0  0  0  0  0  0  0  0  0
  172.1073   30.2035  211.3558 C   0  0  0  0  0  0  0  0  0  0  0  0
  171.4189   30.9940  210.2457 C   0  0  0  0  0  0  0  0  0  0  0  0
  170.4994   30.1645  209.3443 C   0  0  0  0  0  0  0  0  0  0  0  0
  169.7825   30.9366  208.2253 C   0  0  1  0  0  0  0  0  0  0  0  0
  169.6955   32.3165  208.6183 O   0  0  0  0  0  0  0  0  0  0  0  0
  170.3977   30.8497  206.8067 C   0  0  1  0  0  0  0  0  0  0  0  0
  171.6839   31.5068  206.7684 O   0  0  0  0  0  0  0  0  0  0  0  0
  170.5234   29.4229  206.2020 C   0  0  2  0  0  0  0  0  0  0  0  0
  169.8031   29.1709  204.8622 C   0  0  0  0  0  0  0  0  0  0  0  0
  169.0178   30.2913  204.4695 O   0  0  0  0  0  0  0  0  0  0  0  0
  168.4715   32.9862  203.8026 O   0  0  0  0  0  0  0  0  0  0  0  0
  166.7876   31.7887  200.9996 O   0  0  0  0  0  0  0  0  0  0  0  0
  169.0459   29.7020  202.2207 O   0  0  0  0  0  0  0  0  0  0  0  0
  167.9293   27.2019  200.8528 O   0  0  0  0  0  0  0  0  0  0  0  0
  165.3203   29.9313  202.3122 O   0  0  0  0  0  0  0  0  0  0  0  0
  165.0303   30.6562  201.1151 C   0  0  0  0  0  0  0  0  0  0  0  0
  163.5398   30.8647  200.9827 C   0  0  0  0  0  0  0  0  0  0  0  0
  162.9967   31.3625  199.7870 C   0  0  0  0  0  0  0  0  0  0  0  0
  161.6190   31.5319  199.6481 C   0  0  0  0  0  0  0  0  0  0  0  0
  160.7659   31.2012  200.6978 C   0  0  0  0  0  0  0  0  0  0  0  0
  161.2905   30.7053  201.8916 C   0  0  0  0  0  0  0  0  0  0  0  0
  162.6709   30.5356  202.0331 C   0  0  0  0  0  0  0  0  0  0  0  0
  170.0563   28.4468  207.1995 N   0  0  0  0  0  0  0  0  0  0  0  0
  168.9644   27.6444  206.9680 C   0  0  0  0  0  0  0  0  0  0  0  0
  168.3878   27.6033  205.8837 O   0  0  0  0  0  0  0  0  0  0  0  0
  168.5272   26.7990  208.1458 C   0  0  0  0  0  0  0  0  0  0  0  0
  167.3146   25.9263  207.8168 C   0  0  0  0  0  0  0  0  0  0  0  0
  167.6196   24.4279  207.9321 C   0  0  0  0  0  0  0  0  0  0  0  0
  166.4783   23.5086  207.4871 C   0  0  0  0  0  0  0  0  0  0  0  0
  166.7798   22.0204  207.6707 C   0  0  0  0  0  0  0  0  0  0  0  0
  165.9061   21.3666  208.7467 C   0  0  0  0  0  0  0  0  0  0  0  0
  165.0992   20.1459  208.2792 C   0  0  0  0  0  0  0  0  0  0  0  0
  164.2225   19.4786  209.3476 C   0  0  0  0  0  0  0  0  0  0  0  0
  163.5289   18.2102  208.8443 C   0  0  0  0  0  0  0  0  0  0  0  0
  162.3661   17.7967  209.7484 C   0  0  0  0  0  0  0  0  0  0  0  0
  161.8822   16.3697  209.4604 C   0  0  0  0  0  0  0  0  0  0  0  0
  161.1830   15.6646  210.6314 C   0  0  0  0  0  0  0  0  0  0  0  0
  159.8235   16.2530  211.0269 C   0  0  0  0  0  0  0  0  0  0  0  0
  158.7102   15.8711  210.0479 C   0  0  0  0  0  0  0  0  0  0  0  0
  157.3705   16.4929  210.4442 C   0  0  0  0  0  0  0  0  0  0  0  0
  157.2448   17.9510  209.9960 C   0  0  0  0  0  0  0  0  0  0  0  0
  155.8398   18.5638  210.1086 C   0  0  0  0  0  0  0  0  0  0  0  0
  155.7313   20.0569  209.7811 C   0  0  0  0  0  0  0  0  0  0  0  0
  154.3391   20.6736  209.9684 C   0  0  0  0  0  0  0  0  0  0  0  0
  153.3490   19.7371  210.6671 C   0  0  0  0  0  0  0  0  0  0  0  0
  151.9935   20.4207  210.8682 C   0  0  0  0  0  0  0  0  0  0  0  0
  152.0169   21.5082  211.9462 C   0  0  0  0  0  0  0  0  0  0  0  0
  151.1077   22.6972  211.6269 C   0  0  0  0  0  0  0  0  0  0  0  0
  151.8987   23.8610  211.0303 C   0  0  0  0  0  0  0  0  0  0  0  0
  150.9934   25.0413  210.7133 C   0  0  0  0  0  0  0  0  0  0  0  0
  1  2  1  0
  1  6  1  6
 30  1  1  0
  3  2  1  0
  2 32  1  6
  4  3  1  0
  3 29  1  6
  5  4  1  0
  4 28  1  1
  5 27  1  1
  5 30  1  0
  6 31  1  0
  8  7  1  0
  9  8  1  0
 10  9  1  0
 11 10  1  0
 12 11  1  0
 13 12  1  0
 14 13  1  0
 15 14  1  0
 16 15  1  0
 17 16  1  0
 18 17  1  0
 19 18  1  0
 20 19  1  0
 21 20  1  0
 21 22  1  1
 23 21  1  0
 23 24  1  1
 25 23  1  0
 25 26  1  6
 25 40  1  0
 26 27  1  0
 32 33  1  0
 33 34  1  0
 34 35  2  0
 34 39  1  0
 35 36  1  0
 36 37  2  0
 37 38  1  0
 38 39  2  0
 40 41  1  0
 41 42  2  0
 41 43  1  0
 43 44  1  0
 44 45  1  0
 45 46  1  0
 46 47  1  0
 47 48  1  0
 48 49  1  0
 49 50  1  0
 50 51  1  0
 51 52  1  0
 52 53  1  0
 53 54  1  0
 54 55  1  0
 55 56  1  0
 56 57  1  0
 57 58  1  0
 58 59  1  0
 59 60  1  0
 60 61  1  0
 61 62  1  0
 62 63  1  0
 63 64  1  0
 64 65  1  0
 65 66  1  0
 66 67  1  0
M  END
$$$$
