
     RDKit          3D

 67 68  0  0  0  0  0  0  0  0999 V2000
  174.5016   31.4264  209.8280 C   0  0  1  0  0  0  0  0  0  0  0  0
  174.4516   30.6859  211.1983 C   0  0  1  0  0  0  0  0  0  0  0  0
  175.3722   29.4592  211.2153 C   0  0  1  0  0  0  0  0  0  0  0  0
  175.1710   28.5478  209.9951 C   0  0  2  0  0  0  0  0  0  0  0  0
  174.3250   29.2236  208.8911 C   0  0  1  0  0  0  0  0  0  0  0  0
  175.5081   32.5841  209.7606 C   0  0  0  0  0  0  0  0  0  0  0  0
  166.8518   25.5296  193.8653 C   0  0  0  0  0  0  0  0  0  0  0  0
  166.6612   25.0116  195.2833 C   0  0  0  0  0  0  0  0  0  0  0  0
  165.5274   25.7016  196.0509 C   0  0  0  0  0  0  0  0  0  0  0  0
  165.3596   25.2468  197.5063 C   0  0  0  0  0  0  0  0  0  0  0  0
  164.1841   25.8403  198.2834 C   0  0  0  0  0  0  0  0  0  0  0  0
  164.5627   27.0812  199.0948 C   0  0  0  0  0  0  0  0  0  0  0  0
  164.0143   27.0120  200.5229 C   0  0  0  0  0  0  0  0  0  0  0  0
  164.4023   28.2220  201.3815 C   0  0  0  0  0  0  0  0  0  0  0  0
  164.2763   28.0330  202.8978 C   0  0  0  0  0  0  0  0  0  0  0  0
  164.5121   29.2909  203.7365 C   0  0  0  0  0  0  0  0  0  0  0  0
  165.5274   29.0838  204.8614 C   0  0  0  0  0  0  0  0  0  0  0  0
  166.8158   29.8590  204.5789 C   0  0  0  0  0  0  0  0  0  0  0  0
  167.6635   30.0135  205.8392 C   0  0  0  0  0  0  0  0  0  0  0  0
  168.9444   30.8326  205.6532 C   0  0  0  0  0  0  0  0  0  0  0  0
  170.2585   30.1067  205.9829 C   0  0  1  0  0  0  0  0  0  0  0  0
  171.3033   30.6878  205.1848 O   0  0  0  0  0  0  0  0  0  0  0  0
  170.7000   30.0934  207.4673 C   0  0  1  0  0  0  0  0  0  0  0  0
  169.8553   30.9592  208.2575 O   0  0  0  0  0  0  0  0  0  0  0  0
  170.7890   28.6954  208.1417 C   0  0  2  0  0  0  0  0  0  0  0  0
  172.1945   28.2094  208.5488 C   0  0  0  0  0  0  0  0  0  0  0  0
  172.9345   29.2332  209.2050 O   0  0  0  0  0  0  0  0  0  0  0  0
  174.6068   27.2915  210.4045 O   0  0  0  0  0  0  0  0  0  0  0  0
  176.7439   29.8981  211.2792 O   0  0  0  0  0  0  0  0  0  0  0  0
  174.7749   30.5628  208.7050 O   0  0  0  0  0  0  0  0  0  0  0  0
  175.1638   33.5204  208.7407 O   0  0  0  0  0  0  0  0  0  0  0  0
  174.8313   31.5078  212.3168 O   0  0  0  0  0  0  0  0  0  0  0  0
  176.2186   31.8512  212.3085 C   0  0  0  0  0  0  0  0  0  0  0  0
  176.4051   33.2447  211.7552 C   0  0  0  0  0  0  0  0  0  0  0  0
  176.0235   34.3650  212.5113 C   0  0  0  0  0  0  0  0  0  0  0  0
  176.2178   35.6553  212.0182 C   0  0  0  0  0  0  0  0  0  0  0  0
  176.8007   35.8442  210.7677 C   0  0  0  0  0  0  0  0  0  0  0  0
  177.1853   34.7411  210.0051 C   0  0  0  0  0  0  0  0  0  0  0  0
  176.9906   33.4471  210.4972 C   0  0  0  0  0  0  0  0  0  0  0  0
  170.1676   27.7029  207.2502 N   0  0  0  0  0  0  0  0  0  0  0  0
  169.1274   26.9078  207.6690 C   0  0  0  0  0  0  0  0  0  0  0  0
  168.2563   27.3042  208.4398 O   0  0  0  0  0  0  0  0  0  0  0  0
  169.1220   25.5044  207.1000 C   0  0  0  0  0  0  0  0  0  0  0  0
  167.8934   24.7046  207.5367 C   0  0  0  0  0  0  0  0  0  0  0  0
  167.1718   24.0434  206.3562 C   0  0  0  0  0  0  0  0  0  0  0  0
  165.6741   24.3523  206.2702 C   0  0  0  0  0  0  0  0  0  0  0  0
  164.9793   23.7011  205.0733 C   0  0  0  0  0  0  0  0  0  0  0  0
  163.4756   23.9933  205.0294 C   0  0  0  0  0  0  0  0  0  0  0  0
  162.5675   22.7816  205.2881 C   0  0  0  0  0  0  0  0  0  0  0  0
  161.1435   23.1056  205.7598 C   0  0  0  0  0  0  0  0  0  0  0  0
  160.0656   22.5935  204.8011 C   0  0  0  0  0  0  0  0  0  0  0  0
  158.6556   22.8367  205.3429 C   0  0  0  0  0  0  0  0  0  0  0  0
  157.5679   22.3404  204.3819 C   0  0  0  0  0  0  0  0  0  0  0  0
  156.1342   22.7552  204.7421 C   0  0  0  0  0  0  0  0  0  0  0  0
  155.0480   22.2319  203.7947 C   0  0  0  0  0  0  0  0  0  0  0  0
  153.6510   22.2784  204.4190 C   0  0  0  0  0  0  0  0  0  0  0  0
  153.3551   23.6431  205.0424 C   0  0  0  0  0  0  0  0  0  0  0  0
  151.8831   23.8046  205.4295 C   0  0  0  0  0  0  0  0  0  0  0  0
  151.4819   25.1903  205.9598 C   0  0  0  0  0  0  0  0  0  0  0  0
  150.7663   25.2084  207.3147 C   0  0  0  0  0  0  0  0  0  0  0  0
  150.7497   26.5634  208.0337 C   0  0  0  0  0  0  0  0  0  0  0  0
  150.0336   26.5241  209.3870 C   0  0  0  0  0  0  0  0  0  0  0  0
  150.1246   27.8779  210.0970 C   0  0  0  0  0  0  0  0  0  0  0  0
  149.4285   27.8952  211.4610 C   0  0  0  0  0  0  0  0  0  0  0  0
  150.3921   28.1114  212.6301 C   0  0  0  0  0  0  0  0  0  0  0  0
  149.7245   28.8809  213.7695 C   0  0  0  0  0  0  0  0  0  0  0  0
  150.7105   29.1805  214.8880 C   0  0  0  0  0  0  0  0  0  0  0  0
  1  2  1  0
  1  6  1  1
 30  1  1  0
  3  2  1  0
  2 32  1  1
  4  3  1  0
  3 29  1  6
  5  4  1  0
  4 28  1  1
  5 27  1  1
  5 30  1  0
  6 31  1  0
  8  7  1  0
  9  8  1  0
 10  9  1  0
 11 10  1  0
 12 11  1  0
 13 12  1  0
 14 13  1  0
 15 14  1  0
 16 15  1  0
 17 16  1  0
 18 17  1  0
 19 18  1  0
 20 19  1  0
 21 20  1  0
 21 22  1  6
 23 21  1  0
 23 24  1  1
 25 23  1  0
 25 26  1  6
 25 40  1  0
 26 27  1  0
 32 33  1  0
 33 34  1  0
 34 35  2  0
 34 39  1  0
 35 36  1  0
 36 37  2  0
 37 38  1  0
 38 39  2  0
 40 41  1  0
 41 42  2  0
 41 43  1  0
 43 44  1  0
 44 45  1  0
 45 46  1  0
 46 47  1  0
 47 48  1  0
 48 49  1  0
 49 50  1  0
 50 51  1  0
 51 52  1  0
 52 53  1  0
 53 54  1  0
 54 55  1  0
 55 56  1  0
 56 57  1  0
 57 58  1  0
 58 59  1  0
 59 60  1  0
 60 61  1  0
 61 62  1  0
 62 63  1  0
 63 64  1  0
 64 65  1  0
 65 66  1  0
 66 67  1  0
M  END
$$$$
