
     RDKit          3D

 67 68  0  0  0  0  0  0  0  0999 V2000
  174.6772   27.7102  211.7990 C   0  0  1  0  0  0  0  0  0  0  0  0
  173.4003   26.9802  212.3141 C   0  0  1  0  0  0  0  0  0  0  0  0
  173.2474   25.5900  211.6843 C   0  0  1  0  0  0  0  0  0  0  0  0
  173.3917   25.6108  210.1550 C   0  0  2  0  0  0  0  0  0  0  0  0
  173.9593   26.9529  209.6375 C   0  0  1  0  0  0  0  0  0  0  0  0
  175.9201   27.5291  212.6824 C   0  0  0  0  0  0  0  0  0  0  0  0
  165.8766   18.3446  202.0180 C   0  0  0  0  0  0  0  0  0  0  0  0
  164.3622   18.4363  202.1332 C   0  0  0  0  0  0  0  0  0  0  0  0
  163.7472   19.5986  201.3445 C   0  0  0  0  0  0  0  0  0  0  0  0
  163.0573   20.6688  202.1998 C   0  0  0  0  0  0  0  0  0  0  0  0
  162.6258   21.9501  201.4857 C   0  0  0  0  0  0  0  0  0  0  0  0
  162.3371   23.1069  202.4448 C   0  0  0  0  0  0  0  0  0  0  0  0
  163.5506   23.4316  203.3206 C   0  0  0  0  0  0  0  0  0  0  0  0
  163.3127   24.6075  204.2759 C   0  0  0  0  0  0  0  0  0  0  0  0
  164.5300   25.0653  205.0879 C   0  0  0  0  0  0  0  0  0  0  0  0
  165.5804   25.8556  204.3047 C   0  0  0  0  0  0  0  0  0  0  0  0
  166.7773   26.2778  205.1581 C   0  0  0  0  0  0  0  0  0  0  0  0
  167.8592   26.9261  204.2923 C   0  0  0  0  0  0  0  0  0  0  0  0
  169.1956   26.9976  205.0272 C   0  0  0  0  0  0  0  0  0  0  0  0
  170.3250   27.6679  204.2390 C   0  0  0  0  0  0  0  0  0  0  0  0
  171.4160   28.3504  205.0794 C   0  0  1  0  0  0  0  0  0  0  0  0
  171.0674   29.7373  205.2244 O   0  0  0  0  0  0  0  0  0  0  0  0
  171.7044   27.7495  206.4773 C   0  0  1  0  0  0  0  0  0  0  0  0
  172.9303   26.9851  206.4599 O   0  0  0  0  0  0  0  0  0  0  0  0
  171.7351   28.7565  207.6615 C   0  0  2  0  0  0  0  0  0  0  0  0
  173.0391   28.8242  208.4814 C   0  0  0  0  0  0  0  0  0  0  0  0
  172.9796   27.9884  209.6322 O   0  0  0  0  0  0  0  0  0  0  0  0
  172.1356   25.2895  209.5359 O   0  0  0  0  0  0  0  0  0  0  0  0
  174.2266   24.7008  212.2577 O   0  0  0  0  0  0  0  0  0  0  0  0
  175.0574   27.3478  210.4552 O   0  0  0  0  0  0  0  0  0  0  0  0
  176.7524   28.6877  212.6613 O   0  0  0  0  0  0  0  0  0  0  0  0
  173.3717   26.7972  213.7410 O   0  0  0  0  0  0  0  0  0  0  0  0
  174.2557   25.7664  214.1869 C   0  0  0  0  0  0  0  0  0  0  0  0
  173.4622   24.5733  214.6656 C   0  0  0  0  0  0  0  0  0  0  0  0
  174.1190   23.4526  215.1997 C   0  0  0  0  0  0  0  0  0  0  0  0
  173.3917   22.3586  215.6687 C   0  0  0  0  0  0  0  0  0  0  0  0
  172.0002   22.3715  215.6165 C   0  0  0  0  0  0  0  0  0  0  0  0
  171.3335   23.4777  215.0891 C   0  0  0  0  0  0  0  0  0  0  0  0
  172.0607   24.5747  214.6178 C   0  0  0  0  0  0  0  0  0  0  0  0
  170.6074   28.4605  208.5597 N   0  0  0  0  0  0  0  0  0  0  0  0
  169.7867   29.4534  209.0392 C   0  0  0  0  0  0  0  0  0  0  0  0
  170.1610   30.6155  209.1790 O   0  0  0  0  0  0  0  0  0  0  0  0
  168.3758   29.0157  209.3724 C   0  0  0  0  0  0  0  0  0  0  0  0
  167.4897   28.9139  208.1297 C   0  0  0  0  0  0  0  0  0  0  0  0
  166.0022   28.7801  208.4773 C   0  0  0  0  0  0  0  0  0  0  0  0
  165.0713   28.6712  207.2659 C   0  0  0  0  0  0  0  0  0  0  0  0
  165.4884   29.5535  206.0882 C   0  0  0  0  0  0  0  0  0  0  0  0
  164.4672   29.5393  204.9456 C   0  0  0  0  0  0  0  0  0  0  0  0
  164.9719   30.1108  203.6120 C   0  0  0  0  0  0  0  0  0  0  0  0
  164.3928   29.4614  202.3478 C   0  0  0  0  0  0  0  0  0  0  0  0
  163.2039   30.2338  201.7705 C   0  0  0  0  0  0  0  0  0  0  0  0
  162.2222   29.3130  201.0430 C   0  0  0  0  0  0  0  0  0  0  0  0
  161.5188   30.0165  199.8753 C   0  0  0  0  0  0  0  0  0  0  0  0
  160.0439   30.3700  200.1141 C   0  0  0  0  0  0  0  0  0  0  0  0
  159.7164   31.8669  200.0575 C   0  0  0  0  0  0  0  0  0  0  0  0
  159.5210   32.3724  198.6259 C   0  0  0  0  0  0  0  0  0  0  0  0
  158.0433   32.4031  198.2334 C   0  0  0  0  0  0  0  0  0  0  0  0
  157.6102   33.7645  197.6840 C   0  0  0  0  0  0  0  0  0  0  0  0
  157.0156   33.7523  196.2668 C   0  0  0  0  0  0  0  0  0  0  0  0
  155.5040   33.5175  196.1759 C   0  0  0  0  0  0  0  0  0  0  0  0
  155.0769   32.2603  195.4076 C   0  0  0  0  0  0  0  0  0  0  0  0
  154.0967   32.5493  194.2669 C   0  0  0  0  0  0  0  0  0  0  0  0
  153.9657   31.3412  193.3348 C   0  0  0  0  0  0  0  0  0  0  0  0
  153.9151   31.7219  191.8523 C   0  0  0  0  0  0  0  0  0  0  0  0
  152.5224   31.5718  191.2356 C   0  0  0  0  0  0  0  0  0  0  0  0
  152.5296   31.9221  189.7478 C   0  0  0  0  0  0  0  0  0  0  0  0
  151.1605   31.7067  189.1215 C   0  0  0  0  0  0  0  0  0  0  0  0
  1  2  1  0
  1  6  1  1
 30  1  1  0
  3  2  1  0
  2 32  1  1
  4  3  1  0
  3 29  1  1
  5  4  1  0
  4 28  1  6
  5 27  1  1
  5 30  1  0
  6 31  1  0
  8  7  1  0
  9  8  1  0
 10  9  1  0
 11 10  1  0
 12 11  1  0
 13 12  1  0
 14 13  1  0
 15 14  1  0
 16 15  1  0
 17 16  1  0
 18 17  1  0
 19 18  1  0
 20 19  1  0
 21 20  1  0
 21 22  1  1
 23 21  1  0
 23 24  1  6
 25 23  1  0
 25 26  1  1
 25 40  1  0
 26 27  1  0
 32 33  1  0
 33 34  1  0
 34 35  2  0
 34 39  1  0
 35 36  1  0
 36 37  2  0
 37 38  1  0
 38 39  2  0
 40 41  1  0
 41 42  2  0
 41 43  1  0
 43 44  1  0
 44 45  1  0
 45 46  1  0
 46 47  1  0
 47 48  1  0
 48 49  1  0
 49 50  1  0
 50 51  1  0
 51 52  1  0
 52 53  1  0
 53 54  1  0
 54 55  1  0
 55 56  1  0
 56 57  1  0
 57 58  1  0
 58 59  1  0
 59 60  1  0
 60 61  1  0
 61 62  1  0
 62 63  1  0
 63 64  1  0
 64 65  1  0
 65 66  1  0
 66 67  1  0
M  END
$$$$
