
     RDKit          3D

 67 68  0  0  0  0  0  0  0  0999 V2000
  172.4940   28.5095  210.4869 C   0  0  1  0  0  0  0  0  0  0  0  0
  172.0022   28.1961  211.9321 C   0  0  1  0  0  0  0  0  0  0  0  0
  171.7057   26.7030  212.1202 C   0  0  1  0  0  0  0  0  0  0  0  0
  170.8133   26.1294  211.0092 C   0  0  2  0  0  0  0  0  0  0  0  0
  170.6778   27.0944  209.8085 C   0  0  1  0  0  0  0  0  0  0  0  0
  174.0199   28.5162  210.3156 C   0  0  0  0  0  0  0  0  0  0  0  0
  167.4399   18.3392  197.6576 C   0  0  0  0  0  0  0  0  0  0  0  0
  167.8685   18.6287  199.0885 C   0  0  0  0  0  0  0  0  0  0  0  0
  167.1334   19.8108  199.7315 C   0  0  0  0  0  0  0  0  0  0  0  0
  167.6786   20.2476  201.0971 C   0  0  0  0  0  0  0  0  0  0  0  0
  166.8028   21.1938  201.9190 C   0  0  0  0  0  0  0  0  0  0  0  0
  167.5247   22.4785  202.3310 C   0  0  0  0  0  0  0  0  0  0  0  0
  167.0701   23.6764  201.4923 C   0  0  0  0  0  0  0  0  0  0  0  0
  166.6749   24.8938  202.3369 C   0  0  0  0  0  0  0  0  0  0  0  0
  167.7733   25.9412  202.5542 C   0  0  0  0  0  0  0  0  0  0  0  0
  167.8151   27.0702  201.5222 C   0  0  0  0  0  0  0  0  0  0  0  0
  168.7493   28.2147  201.9183 C   0  0  0  0  0  0  0  0  0  0  0  0
  168.9381   28.2603  203.4358 C   0  0  0  0  0  0  0  0  0  0  0  0
  169.5613   29.5806  203.8826 C   0  0  0  0  0  0  0  0  0  0  0  0
  169.8362   29.6828  205.3859 C   0  0  0  0  0  0  0  0  0  0  0  0
  168.6086   29.5575  206.3023 C   0  0  1  0  0  0  0  0  0  0  0  0
  167.9057   28.3551  205.9470 O   0  0  0  0  0  0  0  0  0  0  0  0
  168.8685   29.5625  207.8290 C   0  0  1  0  0  0  0  0  0  0  0  0
  168.9916   30.9157  208.3201 O   0  0  0  0  0  0  0  0  0  0  0  0
  167.8430   28.7835  208.6999 C   0  0  2  0  0  0  0  0  0  0  0  0
  168.4195   27.8589  209.7909 C   0  0  0  0  0  0  0  0  0  0  0  0
  169.7793   28.1682  210.0764 O   0  0  0  0  0  0  0  0  0  0  0  0
  169.5317   25.7624  211.5450 O   0  0  0  0  0  0  0  0  0  0  0  0
  172.9500   25.9769  212.1744 O   0  0  0  0  0  0  0  0  0  0  0  0
  171.9597   27.6236  209.4812 O   0  0  0  0  0  0  0  0  0  0  0  0
  174.4162   29.2670  209.1691 O   0  0  0  0  0  0  0  0  0  0  0  0
  172.9402   28.5676  212.9580 O   0  0  0  0  0  0  0  0  0  0  0  0
  172.3842   28.4939  214.2726 C   0  0  0  0  0  0  0  0  0  0  0  0
  172.3709   29.8644  214.9082 C   0  0  0  0  0  0  0  0  0  0  0  0
  173.1704   30.8953  214.3880 C   0  0  0  0  0  0  0  0  0  0  0  0
  173.1428   32.1705  214.9528 C   0  0  0  0  0  0  0  0  0  0  0  0
  172.3128   32.4347  216.0393 C   0  0  0  0  0  0  0  0  0  0  0  0
  171.5125   31.4210  216.5668 C   0  0  0  0  0  0  0  0  0  0  0  0
  171.5395   30.1422  216.0028 C   0  0  0  0  0  0  0  0  0  0  0  0
  166.9675   28.0035  207.8104 N   0  0  0  0  0  0  0  0  0  0  0  0
  165.9189   27.2611  208.2992 C   0  0  0  0  0  0  0  0  0  0  0  0
  165.0517   27.7359  209.0289 O   0  0  0  0  0  0  0  0  0  0  0  0
  165.8992   25.8114  207.8620 C   0  0  0  0  0  0  0  0  0  0  0  0
  164.6316   25.4562  207.0829 C   0  0  0  0  0  0  0  0  0  0  0  0
  164.2415   26.5387  206.0693 C   0  0  0  0  0  0  0  0  0  0  0  0
  162.9733   26.2334  205.2665 C   0  0  0  0  0  0  0  0  0  0  0  0
  163.0155   26.7526  203.8284 C   0  0  0  0  0  0  0  0  0  0  0  0
  161.7628   26.3825  203.0272 C   0  0  0  0  0  0  0  0  0  0  0  0
  161.9120   26.4785  201.5013 C   0  0  0  0  0  0  0  0  0  0  0  0
  162.7200   27.6770  200.9856 C   0  0  0  0  0  0  0  0  0  0  0  0
  163.9467   27.9860  201.8476 C   0  0  0  0  0  0  0  0  0  0  0  0
  165.2482   27.8770  201.0508 C   0  0  0  0  0  0  0  0  0  0  0  0
  166.0635   29.1760  201.0852 C   0  0  0  0  0  0  0  0  0  0  0  0
  165.2729   30.4560  200.7786 C   0  0  0  0  0  0  0  0  0  0  0  0
  163.7487   30.3169  200.8710 C   0  0  0  0  0  0  0  0  0  0  0  0
  163.0283   30.9307  199.6678 C   0  0  0  0  0  0  0  0  0  0  0  0
  161.5087   30.8779  199.8311 C   0  0  0  0  0  0  0  0  0  0  0  0
  160.7703   31.5548  198.6737 C   0  0  0  0  0  0  0  0  0  0  0  0
  159.2357   31.5190  198.7508 C   0  0  0  0  0  0  0  0  0  0  0  0
  158.4970   32.5548  197.8965 C   0  0  0  0  0  0  0  0  0  0  0  0
  158.0332   33.8135  198.6408 C   0  0  0  0  0  0  0  0  0  0  0  0
  157.3990   34.8627  197.7228 C   0  0  0  0  0  0  0  0  0  0  0  0
  158.4658   35.7751  197.1107 C   0  0  0  0  0  0  0  0  0  0  0  0
  158.3889   35.8581  195.5834 C   0  0  0  0  0  0  0  0  0  0  0  0
  159.4152   36.8175  194.9765 C   0  0  0  0  0  0  0  0  0  0  0  0
  160.7702   36.1372  194.7838 C   0  0  0  0  0  0  0  0  0  0  0  0
  161.7678   37.0693  194.1136 C   0  0  0  0  0  0  0  0  0  0  0  0
  1  2  1  0
  1  6  1  1
 30  1  1  0
  3  2  1  0
  2 32  1  1
  4  3  1  0
  3 29  1  6
  5  4  1  0
  4 28  1  1
  5 27  1  1
  5 30  1  0
  6 31  1  0
  8  7  1  0
  9  8  1  0
 10  9  1  0
 11 10  1  0
 12 11  1  0
 13 12  1  0
 14 13  1  0
 15 14  1  0
 16 15  1  0
 17 16  1  0
 18 17  1  0
 19 18  1  0
 20 19  1  0
 21 20  1  0
 21 22  1  6
 23 21  1  0
 23 24  1  1
 25 23  1  0
 25 26  1  1
 25 40  1  0
 26 27  1  0
 32 33  1  0
 33 34  1  0
 34 35  2  0
 34 39  1  0
 35 36  1  0
 36 37  2  0
 37 38  1  0
 38 39  2  0
 40 41  1  0
 41 42  2  0
 41 43  1  0
 43 44  1  0
 44 45  1  0
 45 46  1  0
 46 47  1  0
 47 48  1  0
 48 49  1  0
 49 50  1  0
 50 51  1  0
 51 52  1  0
 52 53  1  0
 53 54  1  0
 54 55  1  0
 55 56  1  0
 56 57  1  0
 57 58  1  0
 58 59  1  0
 59 60  1  0
 60 61  1  0
 61 62  1  0
 62 63  1  0
 63 64  1  0
 64 65  1  0
 65 66  1  0
 66 67  1  0
M  END
$$$$
