
     RDKit          3D

113120  0  0  0  0  0  0  0  0999 V2000
   -4.2504   -4.7350   35.1918 N   0  0  0  0  0  0  0  0  0  0  0  0
   -5.0683   -5.6868   34.7046 C   0  0  2  0  0  0  0  0  0  0  0  0
   -5.5255   -5.5437   33.2984 C   0  0  0  0  0  0  0  0  0  0  0  0
   -4.6360   -5.1010   32.4868 O   0  0  0  0  0  0  0  0  0  0  0  0
   -6.8263   -5.8641   32.8727 N   0  0  0  0  0  0  0  0  0  0  0  0
   -7.5897   -7.0241   33.2906 C   0  0  2  0  0  0  0  0  0  0  0  0
   -8.5503   -7.5056   32.2852 C   0  0  0  0  0  0  0  0  0  0  0  0
   -9.4974   -6.7204   31.9606 O   0  0  0  0  0  0  0  0  0  0  0  0
   -8.2227   -6.7449   34.6284 C   0  0  0  0  0  0  0  0  0  0  0  0
   -9.5333   -6.0424   34.5001 C   0  0  0  0  0  0  0  0  0  0  0  0
   -9.7094   -5.0464   35.6366 C   0  0  0  0  0  0  0  0  0  0  0  0
  -10.1658   -5.7474   36.8053 N   0  0  0  0  0  0  0  0  0  0  0  0
  -11.2587   -5.2619   37.5493 C   0  0  0  0  0  0  0  0  0  0  0  0
  -11.4967   -5.6647   38.8734 N   0  0  0  0  0  0  0  0  0  0  0  0
  -12.0818   -4.4072   36.9824 N   0  0  0  0  0  0  0  0  0  0  0  0
   -8.5363   -8.7506   31.6337 N   0  0  0  0  0  0  0  0  0  0  0  0
   -8.1151  -10.0179   32.2097 C   0  0  2  0  0  0  0  0  0  0  0  0
   -8.7253  -10.2157   33.5524 C   0  0  0  0  0  0  0  0  0  0  0  0
   -7.8565  -10.1563   34.5011 O   0  0  0  0  0  0  0  0  0  0  0  0
   -6.6033  -10.0206   32.2296 C   0  0  0  0  0  0  0  0  0  0  0  0
   -5.8945  -11.4426   31.3128 S   0  0  0  0  0  0  0  0  0  0  0  0
  -10.0480  -10.4432   33.8831 N   0  0  0  0  0  0  0  0  0  0  0  0
  -10.9675  -11.4954   33.4796 C   0  0  2  0  0  0  0  0  0  0  0  0
  -10.2432  -12.7449   33.1744 C   0  0  0  0  0  0  0  0  0  0  0  0
   -9.2196  -12.8588   33.9790 O   0  0  0  0  0  0  0  0  0  0  0  0
  -11.9639  -11.0653   32.4672 C   0  0  0  0  0  0  0  0  0  0  0  0
  -11.4335  -11.0803   31.0834 C   0  0  0  0  0  0  0  0  0  0  0  0
  -10.3243  -10.2937   30.7492 C   0  0  0  0  0  0  0  0  0  0  0  0
  -11.9774  -11.8181   30.0574 C   0  0  0  0  0  0  0  0  0  0  0  0
   -9.7991  -10.2487   29.4852 C   0  0  0  0  0  0  0  0  0  0  0  0
  -11.4572  -11.7789   28.7860 C   0  0  0  0  0  0  0  0  0  0  0  0
  -10.3559  -10.9923   28.4738 C   0  0  0  0  0  0  0  0  0  0  0  0
   -9.8271  -10.9460   27.2066 O   0  0  0  0  0  0  0  0  0  0  0  0
  -10.4048  -13.7607   32.2702 N   0  0  0  0  0  0  0  0  0  0  0  0
  -11.2068  -14.9434   32.1506 C   0  0  2  0  0  0  0  0  0  0  0  0
  -11.6474  -15.0520   30.7274 C   0  0  0  0  0  0  0  0  0  0  0  0
  -11.7079  -13.9807   30.0677 O   0  0  0  0  0  0  0  0  0  0  0  0
  -12.2145  -15.2651   33.1587 C   0  0  0  0  0  0  0  0  0  0  0  0
  -13.6308  -14.9066   32.9859 C   0  0  0  0  0  0  0  0  0  0  0  0
  -14.1140  -14.6205   31.6032 C   0  0  0  0  0  0  0  0  0  0  0  0
  -13.0779  -14.8312   30.5364 C   0  0  0  0  0  0  0  0  0  0  0  0
  -13.7536  -14.7401   29.2478 N   0  0  0  0  0  4  0  0  0  0  0  0
  -11.9956  -16.2423   30.0737 N   0  0  0  0  0  0  0  0  0  0  0  0
  -11.2778  -17.5111   30.1749 C   0  0  2  0  0  0  0  0  0  0  0  0
  -10.1514  -17.5373   29.2214 C   0  0  0  0  0  0  0  0  0  0  0  0
  -10.5167  -17.6162   27.9862 O   0  0  0  0  0  0  0  0  0  0  0  0
  -12.2690  -18.5926   29.7237 C   0  0  0  0  0  0  0  0  0  0  0  0
  -11.6075  -19.6707   29.1588 O   0  0  0  0  0  0  0  0  0  0  0  0
   -8.7792  -17.4869   29.4701 N   0  0  0  0  0  0  0  0  0  0  0  0
   -7.9418  -18.5163   30.0988 C   0  0  2  0  0  0  0  0  0  0  0  0
   -7.0418  -19.0956   29.1015 C   0  0  0  0  0  0  0  0  0  0  0  0
   -7.6249  -19.5622   28.0476 O   0  0  0  0  0  0  0  0  0  0  0  0
   -8.6551  -19.3649   31.0732 C   0  0  0  0  0  0  0  0  0  0  0  0
   -8.0469  -20.6265   31.5242 C   0  0  0  0  0  0  0  0  0  0  0  0
   -6.6788  -21.0082   31.1340 C   0  0  0  0  0  0  0  0  0  0  0  0
   -5.9566  -20.1303   30.1612 C   0  0  0  0  0  0  0  0  0  0  0  0
   -4.6576  -20.4919   29.7542 N   0  0  0  0  0  4  0  0  0  0  0  0
   -5.6226  -19.1807   29.1903 N   0  0  0  0  0  0  0  0  0  0  0  0
   -4.7511  -18.1727   29.7752 C   0  0  2  0  0  0  0  0  0  0  0  0
   -4.0477  -17.5429   28.6156 C   0  0  0  0  0  0  0  0  0  0  0  0
   -4.8641  -16.9843   27.7848 O   0  0  0  0  0  0  0  0  0  0  0  0
   -3.8839  -19.0013   30.6610 C   0  0  0  0  0  0  0  0  0  0  0  0
   -3.8652  -20.3825   29.9949 C   0  0  0  0  0  0  0  0  0  0  0  0
   -4.6933  -20.2137   28.7359 C   0  0  0  0  0  0  0  0  0  0  0  0
   -2.6950  -17.4896   28.3376 N   0  0  0  0  0  0  0  0  0  0  0  0
   -1.6167  -16.9442   29.1642 C   0  0  2  0  0  0  0  0  0  0  0  0
   -2.0856  -16.0368   30.2226 C   0  0  0  0  0  0  0  0  0  0  0  0
   -3.0751  -15.2836   29.8243 O   0  0  0  0  0  0  0  0  0  0  0  0
   -0.8614  -16.1044   28.1568 C   0  0  0  0  0  0  0  0  0  0  0  0
   -1.0368  -16.8311   26.8754 C   0  0  0  0  0  0  0  0  0  0  0  0
   -1.9674  -17.9665   27.1395 C   0  0  0  0  0  0  0  0  0  0  0  0
   -1.6844  -15.8398   31.5322 N   0  0  0  0  0  0  0  0  0  0  0  0
   -0.5574  -15.3439   32.2028 C   0  0  2  0  0  0  0  0  0  0  0  0
   -0.7546  -14.1153   33.0143 C   0  0  0  0  0  0  0  0  0  0  0  0
   -0.5338  -14.2863   34.2851 O   0  0  0  0  0  0  0  0  0  0  0  0
    0.7790  -15.2420   31.5882 C   0  0  2  0  0  0  0  0  0  0  0  0
    0.9748  -14.1210   30.6050 C   0  0  0  0  0  0  0  0  0  0  0  0
    1.0515  -16.5139   30.7276 C   0  0  0  0  0  0  0  0  0  0  0  0
   -0.4039  -13.5427   30.2707 C   0  0  0  0  0  0  0  0  0  0  0  0
   -1.1283  -12.8347   32.6557 N   0  0  0  0  0  0  0  0  0  0  0  0
   -1.5347  -12.2558   31.4218 C   0  0  2  0  0  0  0  0  0  0  0  0
   -0.5047  -11.5673   30.6401 C   0  0  0  0  0  0  0  0  0  0  0  0
   -0.1245  -12.2322   29.5783 O   0  0  0  0  0  0  0  0  0  0  0  0
   -2.7249  -11.3059   31.7103 C   0  0  0  0  0  0  0  0  0  0  0  0
   -4.1768  -12.2192   32.2435 S   0  0  0  0  0  0  0  0  0  0  0  0
    0.1299  -10.3298   30.8421 N   0  0  0  0  0  0  0  0  0  0  0  0
    0.5271   -9.6875   32.0696 C   0  0  2  0  0  0  0  0  0  0  0  0
    1.1281   -8.3509   31.7217 C   0  0  0  0  0  0  0  0  0  0  0  0
    1.2157   -8.0508   30.4741 O   0  0  0  0  0  0  0  0  0  0  0  0
    1.5454  -10.4607   32.8410 C   0  0  0  0  0  0  0  0  0  0  0  0
    2.6856  -11.0040   32.0504 C   0  0  0  0  0  0  0  0  0  0  0  0
    3.7354  -11.6311   32.6985 C   0  0  0  0  0  0  0  0  0  0  0  0
    2.7404  -10.8948   30.6852 C   0  0  0  0  0  0  0  0  0  0  0  0
    4.7909  -12.1218   31.9826 C   0  0  0  0  0  0  0  0  0  0  0  0
    3.8171  -11.3983   29.9893 C   0  0  0  0  0  0  0  0  0  0  0  0
    4.8728  -12.0256   30.6128 C   0  0  0  0  0  0  0  0  0  0  0  0
    1.6067   -7.3842   32.6208 N   0  0  0  0  0  0  0  0  0  0  0  0
    0.8987   -7.0373   33.8716 C   0  0  2  0  0  0  0  0  0  0  0  0
    0.3300   -5.6665   33.8172 C   0  0  0  0  0  0  0  0  0  0  0  0
    1.1927   -4.7408   33.5911 O   0  0  0  0  0  0  0  0  0  0  0  0
    2.1130   -7.0474   34.8337 C   0  0  0  0  0  0  0  0  0  0  0  0
    3.2060   -6.4113   34.0231 C   0  0  0  0  0  0  0  0  0  0  0  0
    2.7669   -6.5429   32.6047 C   0  0  0  0  0  0  0  0  0  0  0  0
   -1.0097   -5.2911   33.9807 N   0  0  0  0  0  0  0  0  0  0  0  0
   -1.9056   -5.5512   35.0739 C   0  0  2  0  0  0  0  0  0  0  0  0
   -2.9113   -4.4097   35.1442 C   0  0  0  0  0  0  0  0  0  0  0  0
   -2.4086   -3.2573   35.1510 O   0  0  0  0  0  0  0  0  0  0  0  0
   -1.3133   -5.6378   36.4266 C   0  0  0  0  0  0  0  0  0  0  0  0
   -2.3054   -5.3590   37.4793 C   0  0  0  0  0  0  0  0  0  0  0  0
   -3.3091   -6.2863   37.8110 O   0  0  0  0  0  0  0  0  0  0  0  0
   -2.2864   -4.2787   38.1182 O   0  0  0  0  0  0  0  0  0  0  0  0
   -5.6378   -4.6354   35.5337 O   0  0  0  0  0  0  0  0  0  0  0  0
  -12.8594   -3.9694   37.4956 H   0  0  0  0  0  0  0  0  0  0  0  0
  1  2  1  0
  1106  1  0
  1112  1  0
  2  3  1  0
  2112  1  1
  3  4  2  0
  3  5  1  0
  5  6  1  0
  6  7  1  0
  6  9  1  1
  7  8  2  0
  7 16  1  0
  9 10  1  0
 10 11  1  0
 11 12  1  0
 12 13  1  0
 13 14  1  0
 13 15  2  0
 17 16  1  1
 17 18  1  0
 17 20  1  0
 18 19  2  0
 18 22  1  0
 20 21  1  0
 21 85  1  0
 22 23  1  0
 23 24  1  0
 23 26  1  6
 24 25  2  0
 24 34  1  0
 26 27  1  0
 27 28  2  0
 27 29  1  0
 28 30  1  0
 29 31  2  0
 30 32  2  0
 31 32  1  0
 32 33  1  0
 34 35  1  0
 35 36  1  0
 35 38  1  1
 36 37  2  0
 36 43  1  0
 38 39  1  0
 39 40  1  0
 40 41  1  0
 41 42  1  0
 43 44  1  0
 44 45  1  0
 44 47  1  6
 45 46  2  0
 45 49  1  0
 47 48  1  0
 49 50  1  0
 50 51  1  0
 50 53  1  6
 51 52  2  0
 51 58  1  0
 53 54  1  0
 54 55  1  0
 55 56  1  0
 56 57  1  0
 58 59  1  0
 58 64  1  0
 59 60  1  0
 59 62  1  1
 60 61  2  0
 60 65  1  0
 62 63  1  0
 63 64  1  0
 65 66  1  0
 65 71  1  0
 66 67  1  0
 66 69  1  6
 67 68  2  0
 67 72  1  0
 69 70  1  0
 70 71  1  0
 73 72  1  6
 73 74  1  0
 73 76  1  0
 74 75  2  0
 74 80  1  0
 76 77  1  0
 76 78  1  6
 77 79  1  0
 81 80  1  1
 81 82  1  0
 81 84  1  0
 82 83  2  0
 82 86  1  0
 84 85  1  0
 86 87  1  0
 87 88  1  0
 87 90  1  6
 88 89  2  0
 88 97  1  0
 90 91  1  0
 91 92  2  0
 91 93  1  0
 92 94  1  0
 93 95  2  0
 94 96  2  0
 95 96  1  0
 97 98  1  0
 97103  1  0
 98 99  1  0
 98101  1  1
 99100  2  0
 99104  1  0
101102  1  0
102103  1  0
104105  1  0
105106  1  0
105108  1  1
106107  2  0
108109  1  0
109110  1  0
109111  2  0
 15113  1  0
M  CHG  2  42   1  57   1
M  END
$$$$
