
     RDKit          3D

113120  0  0  0  0  0  0  0  0999 V2000
   -9.1332  -19.1397   34.8432 N   0  0  0  0  0  0  0  0  0  0  0  0
   -9.0870  -17.7948   34.8816 C   0  0  2  0  0  0  0  0  0  0  0  0
   -8.1917  -17.1681   35.8879 C   0  0  0  0  0  0  0  0  0  0  0  0
   -7.0732  -17.7718   36.0616 O   0  0  0  0  0  0  0  0  0  0  0  0
   -8.5273  -16.0048   36.6022 N   0  0  0  0  0  0  0  0  0  0  0  0
   -9.1783  -14.8329   36.0493 C   0  0  2  0  0  0  0  0  0  0  0  0
   -8.8300  -13.5750   36.7290 C   0  0  0  0  0  0  0  0  0  0  0  0
   -9.1649  -13.4605   37.9511 O   0  0  0  0  0  0  0  0  0  0  0  0
  -10.6628  -15.0771   35.9799 C   0  0  0  0  0  0  0  0  0  0  0  0
  -10.9910  -16.5167   35.7618 C   0  0  0  0  0  0  0  0  0  0  0  0
   -9.8765  -17.1977   34.9817 C   0  0  0  0  0  0  0  0  0  0  0  0
   -9.1743  -18.0951   35.8577 N   0  0  0  0  0  0  0  0  0  0  0  0
   -8.4753  -19.2016   35.3373 C   0  0  0  0  0  0  0  0  0  0  0  0
   -7.0761  -19.2104   35.2182 N   0  0  0  0  0  0  0  0  0  0  0  0
   -9.1575  -20.2567   34.9490 N   0  0  0  0  0  0  0  0  0  0  0  0
   -8.1579  -12.4736   36.1723 N   0  0  0  0  0  0  0  0  0  0  0  0
   -8.2732  -11.9985   34.8025 C   0  0  2  0  0  0  0  0  0  0  0  0
   -9.7011  -11.9130   34.3924 C   0  0  0  0  0  0  0  0  0  0  0  0
  -10.0106  -12.7910   33.5027 O   0  0  0  0  0  0  0  0  0  0  0  0
   -7.4528  -12.9267   33.9357 C   0  0  0  0  0  0  0  0  0  0  0  0
   -6.1591  -12.0367   32.9875 S   0  0  0  0  0  0  0  0  0  0  0  0
  -10.6835  -11.0461   34.8330 N   0  0  0  0  0  0  0  0  0  0  0  0
  -10.7525   -9.5934   34.8216 C   0  0  2  0  0  0  0  0  0  0  0  0
   -9.9733   -9.0337   33.6997 C   0  0  0  0  0  0  0  0  0  0  0  0
  -10.0606   -9.8347   32.6707 O   0  0  0  0  0  0  0  0  0  0  0  0
  -10.5102   -8.9712   36.1471 C   0  0  0  0  0  0  0  0  0  0  0  0
   -9.1051   -9.0951   36.6018 C   0  0  0  0  0  0  0  0  0  0  0  0
   -8.0953   -9.4040   35.6822 C   0  0  0  0  0  0  0  0  0  0  0  0
   -8.7018   -8.9451   37.9086 C   0  0  0  0  0  0  0  0  0  0  0  0
   -6.7822   -9.5513   36.0423 C   0  0  0  0  0  0  0  0  0  0  0  0
   -7.3865   -9.0914   38.2790 C   0  0  0  0  0  0  0  0  0  0  0  0
   -6.3987   -9.3978   37.3519 C   0  0  0  0  0  0  0  0  0  0  0  0
   -5.0808   -9.5455   37.7108 O   0  0  0  0  0  0  0  0  0  0  0  0
   -9.2126   -7.9099   33.5156 N   0  0  0  0  0  0  0  0  0  0  0  0
   -9.4382   -6.5255   33.2174 C   0  0  2  0  0  0  0  0  0  0  0  0
   -8.4943   -5.7213   34.0504 C   0  0  0  0  0  0  0  0  0  0  0  0
   -8.0905   -6.2482   35.1209 O   0  0  0  0  0  0  0  0  0  0  0  0
  -10.7968   -6.0002   33.1024 C   0  0  0  0  0  0  0  0  0  0  0  0
  -11.7530   -6.0629   34.2187 C   0  0  0  0  0  0  0  0  0  0  0  0
  -11.9176   -7.3682   34.9232 C   0  0  0  0  0  0  0  0  0  0  0  0
  -11.3992   -7.3731   36.3329 C   0  0  0  0  0  0  0  0  0  0  0  0
  -12.0522   -8.4718   37.0341 N   0  0  0  0  0  4  0  0  0  0  0  0
   -8.0264   -4.4375   33.7371 N   0  0  0  0  0  0  0  0  0  0  0  0
   -7.5849   -3.9903   32.4179 C   0  0  2  0  0  0  0  0  0  0  0  0
   -6.1705   -4.3539   32.2030 C   0  0  0  0  0  0  0  0  0  0  0  0
   -5.3434   -3.6775   32.9268 O   0  0  0  0  0  0  0  0  0  0  0  0
   -7.6512   -2.4572   32.4492 C   0  0  0  0  0  0  0  0  0  0  0  0
   -7.6549   -1.9849   33.7516 O   0  0  0  0  0  0  0  0  0  0  0  0
   -5.6219   -5.3086   31.3457 N   0  0  0  0  0  0  0  0  0  0  0  0
   -5.5745   -5.2769   29.8785 C   0  0  2  0  0  0  0  0  0  0  0  0
   -4.1934   -5.0877   29.4345 C   0  0  0  0  0  0  0  0  0  0  0  0
   -3.5977   -4.0558   29.9331 O   0  0  0  0  0  0  0  0  0  0  0  0
   -6.6893   -4.5392   29.2527 C   0  0  0  0  0  0  0  0  0  0  0  0
   -6.5350   -3.1087   28.9445 C   0  0  0  0  0  0  0  0  0  0  0  0
   -5.4842   -2.2910   29.5743 C   0  0  0  0  0  0  0  0  0  0  0  0
   -4.0974   -2.8504   29.6261 C   0  0  0  0  0  0  0  0  0  0  0  0
   -3.4527   -2.9538   30.8740 N   0  0  0  0  0  4  0  0  0  0  0  0
   -3.4729   -5.9218   28.5321 N   0  0  0  0  0  0  0  0  0  0  0  0
   -3.5760   -7.3715   28.4565 C   0  0  2  0  0  0  0  0  0  0  0  0
   -2.2915   -7.8852   29.0242 C   0  0  0  0  0  0  0  0  0  0  0  0
   -2.1127   -7.5242   30.2516 O   0  0  0  0  0  0  0  0  0  0  0  0
   -3.7449   -7.5857   26.9907 C   0  0  0  0  0  0  0  0  0  0  0  0
   -3.0445   -6.3839   26.3451 C   0  0  0  0  0  0  0  0  0  0  0  0
   -2.4788   -5.5964   27.5109 C   0  0  0  0  0  0  0  0  0  0  0  0
   -1.3186   -8.6613   28.4235 N   0  0  0  0  0  0  0  0  0  0  0  0
   -1.4603   -9.9799   27.8034 C   0  0  2  0  0  0  0  0  0  0  0  0
   -2.6864  -10.6895   28.1991 C   0  0  0  0  0  0  0  0  0  0  0  0
   -2.9807  -10.5023   29.4574 O   0  0  0  0  0  0  0  0  0  0  0  0
   -0.2941  -10.7262   28.4147 C   0  0  0  0  0  0  0  0  0  0  0  0
    0.7416   -9.6822   28.6101 C   0  0  0  0  0  0  0  0  0  0  0  0
    0.1228   -8.3766   28.2398 C   0  0  0  0  0  0  0  0  0  0  0  0
   -3.5671  -11.4971   27.5012 N   0  0  0  0  0  0  0  0  0  0  0  0
   -3.5479  -12.7597   26.8919 C   0  0  2  0  0  0  0  0  0  0  0  0
   -4.4520  -13.7886   27.4673 C   0  0  0  0  0  0  0  0  0  0  0  0
   -5.3632  -14.2072   26.6382 O   0  0  0  0  0  0  0  0  0  0  0  0
   -2.3105  -13.4530   26.4891 C   0  0  2  0  0  0  0  0  0  0  0  0
   -1.5789  -12.8755   25.3091 C   0  0  0  0  0  0  0  0  0  0  0  0
   -2.6576  -14.8972   26.0131 C   0  0  0  0  0  0  0  0  0  0  0  0
   -2.4354  -11.7435   24.7330 C   0  0  0  0  0  0  0  0  0  0  0  0
   -4.4915  -14.3721   28.7187 N   0  0  0  0  0  0  0  0  0  0  0  0
   -3.7546  -14.1472   29.9141 C   0  0  2  0  0  0  0  0  0  0  0  0
   -2.6077  -15.0241   30.1624 C   0  0  0  0  0  0  0  0  0  0  0  0
   -1.4523  -14.4348   29.9840 O   0  0  0  0  0  0  0  0  0  0  0  0
   -4.7476  -14.1998   31.1030 C   0  0  0  0  0  0  0  0  0  0  0  0
   -5.8997  -12.8226   31.0549 S   0  0  0  0  0  0  0  0  0  0  0  0
   -2.5485  -16.3723   30.5546 N   0  0  0  0  0  0  0  0  0  0  0  0
   -3.4084  -17.4735   30.2009 C   0  0  2  0  0  0  0  0  0  0  0  0
   -2.9231  -18.6965   30.9340 C   0  0  0  0  0  0  0  0  0  0  0  0
   -1.8733  -18.5672   31.6659 O   0  0  0  0  0  0  0  0  0  0  0  0
   -3.4047  -17.7834   28.7403 C   0  0  0  0  0  0  0  0  0  0  0  0
   -3.3211  -19.2273   28.3819 C   0  0  0  0  0  0  0  0  0  0  0  0
   -2.2979  -19.6754   27.5648 C   0  0  0  0  0  0  0  0  0  0  0  0
   -4.2397  -20.1411   28.8289 C   0  0  0  0  0  0  0  0  0  0  0  0
   -2.2202  -20.9957   27.2213 C   0  0  0  0  0  0  0  0  0  0  0  0
   -4.1369  -21.4659   28.4662 C   0  0  0  0  0  0  0  0  0  0  0  0
   -3.1280  -21.9341   27.6541 C   0  0  0  0  0  0  0  0  0  0  0  0
   -3.4991  -19.9769   30.9075 N   0  0  0  0  0  0  0  0  0  0  0  0
   -4.9601  -20.1964   30.9670 C   0  0  2  0  0  0  0  0  0  0  0  0
   -5.3681  -20.8236   32.2498 C   0  0  0  0  0  0  0  0  0  0  0  0
   -4.7972  -21.9482   32.4979 O   0  0  0  0  0  0  0  0  0  0  0  0
   -5.0825  -21.2396   29.8281 C   0  0  0  0  0  0  0  0  0  0  0  0
   -3.8718  -22.1079   30.0183 C   0  0  0  0  0  0  0  0  0  0  0  0
   -2.9287  -21.2896   30.8325 C   0  0  0  0  0  0  0  0  0  0  0  0
   -6.2825  -20.3290   33.1888 N   0  0  0  0  0  0  0  0  0  0  0  0
   -7.6559  -19.9439   33.0132 C   0  0  2  0  0  0  0  0  0  0  0  0
   -8.3857  -20.1780   34.3292 C   0  0  0  0  0  0  0  0  0  0  0  0
   -8.2294  -21.3215   34.8282 O   0  0  0  0  0  0  0  0  0  0  0  0
   -8.4378  -20.6769   31.9936 C   0  0  0  0  0  0  0  0  0  0  0  0
   -9.7700  -20.0817   31.7909 C   0  0  0  0  0  0  0  0  0  0  0  0
  -10.3711  -19.2688   32.7683 O   0  0  0  0  0  0  0  0  0  0  0  0
  -10.4151  -20.2817   30.7328 O   0  0  0  0  0  0  0  0  0  0  0  0
  -10.1937  -18.4736   35.5385 O   0  0  0  0  0  0  0  0  0  0  0  0
   -9.1152  -21.1544   35.4511 H   0  0  0  0  0  0  0  0  0  0  0  0
  1  2  1  0
  1106  1  0
  1112  1  0
  2  3  1  0
  2112  1  1
  3  4  2  0
  3  5  1  0
  5  6  1  0
  6  7  1  0
  6  9  1  1
  7  8  2  0
  7 16  1  0
  9 10  1  0
 10 11  1  0
 11 12  1  0
 12 13  1  0
 13 14  1  0
 13 15  2  0
 17 16  1  1
 17 18  1  0
 17 20  1  0
 18 19  2  0
 18 22  1  0
 20 21  1  0
 21 85  1  0
 22 23  1  0
 23 24  1  0
 23 26  1  1
 24 25  2  0
 24 34  1  0
 26 27  1  0
 27 28  2  0
 27 29  1  0
 28 30  1  0
 29 31  2  0
 30 32  2  0
 31 32  1  0
 32 33  1  0
 34 35  1  0
 35 36  1  0
 35 38  1  1
 36 37  2  0
 36 43  1  0
 38 39  1  0
 39 40  1  0
 40 41  1  0
 41 42  1  0
 43 44  1  0
 44 45  1  0
 44 47  1  1
 45 46  2  0
 45 49  1  0
 47 48  1  0
 49 50  1  0
 50 51  1  0
 50 53  1  1
 51 52  2  0
 51 58  1  0
 53 54  1  0
 54 55  1  0
 55 56  1  0
 56 57  1  0
 58 59  1  0
 58 64  1  0
 59 60  1  0
 59 62  1  6
 60 61  2  0
 60 65  1  0
 62 63  1  0
 63 64  1  0
 65 66  1  0
 65 71  1  0
 66 67  1  0
 66 69  1  1
 67 68  2  0
 67 72  1  0
 69 70  1  0
 70 71  1  0
 73 72  1  1
 73 74  1  0
 73 76  1  0
 74 75  2  0
 74 80  1  0
 76 77  1  0
 76 78  1  6
 77 79  1  0
 81 80  1  6
 81 82  1  0
 81 84  1  0
 82 83  2  0
 82 86  1  0
 84 85  1  0
 86 87  1  0
 87 88  1  0
 87 90  1  6
 88 89  2  0
 88 97  1  0
 90 91  1  0
 91 92  2  0
 91 93  1  0
 92 94  1  0
 93 95  2  0
 94 96  2  0
 95 96  1  0
 97 98  1  0
 97103  1  0
 98 99  1  0
 98101  1  6
 99100  2  0
 99104  1  0
101102  1  0
102103  1  0
104105  1  0
105106  1  0
105108  1  6
106107  2  0
108109  1  0
109110  1  0
109111  2  0
 15113  1  0
M  CHG  2  42   1  57   1
M  END
$$$$
