
     RDKit          3D

113120  0  0  0  0  0  0  0  0999 V2000
   -9.3992  -18.3014   29.5051 N   0  0  0  0  0  0  0  0  0  0  0  0
   -9.4339  -17.0789   30.0679 C   0  0  2  0  0  0  0  0  0  0  0  0
   -9.5194  -17.0085   31.5493 C   0  0  0  0  0  0  0  0  0  0  0  0
   -8.8252  -17.8909   32.1699 O   0  0  0  0  0  0  0  0  0  0  0  0
  -10.2942  -16.0561   32.2338 N   0  0  0  0  0  0  0  0  0  0  0  0
  -10.4066  -14.6524   31.8874 C   0  0  2  0  0  0  0  0  0  0  0  0
  -10.6724  -13.7696   33.0344 C   0  0  0  0  0  0  0  0  0  0  0  0
  -11.7708  -13.9348   33.6550 O   0  0  0  0  0  0  0  0  0  0  0  0
  -11.4091  -14.4954   30.7745 C   0  0  0  0  0  0  0  0  0  0  0  0
  -12.2678  -15.7052   30.6100 C   0  0  0  0  0  0  0  0  0  0  0  0
  -11.8771  -16.7691   31.6248 C   0  0  0  0  0  0  0  0  0  0  0  0
  -12.2641  -16.3276   32.9367 N   0  0  0  0  0  0  0  0  0  0  0  0
  -13.2205  -17.0462   33.6800 C   0  0  0  0  0  0  0  0  0  0  0  0
  -13.7472  -18.2688   33.2325 N   0  0  0  0  0  0  0  0  0  0  0  0
  -13.6333  -16.5528   34.8269 N   0  0  0  0  0  0  0  0  0  0  0  0
   -9.8366  -12.7536   33.5282 N   0  0  0  0  0  0  0  0  0  0  0  0
   -8.9737  -11.8899   32.7378 C   0  0  2  0  0  0  0  0  0  0  0  0
   -9.7072  -11.3432   31.5642 C   0  0  0  0  0  0  0  0  0  0  0  0
   -9.2781  -11.8232   30.4489 O   0  0  0  0  0  0  0  0  0  0  0  0
   -7.7534  -12.6992   32.3610 C   0  0  0  0  0  0  0  0  0  0  0  0
   -6.1938  -11.9178   32.9281 S   0  0  0  0  0  0  0  0  0  0  0  0
  -10.7425  -10.4279   31.5332 N   0  0  0  0  0  0  0  0  0  0  0  0
  -10.8278   -9.0630   32.0284 C   0  0  2  0  0  0  0  0  0  0  0  0
   -9.5033   -8.4114   32.0194 C   0  0  0  0  0  0  0  0  0  0  0  0
   -8.8205   -8.8342   30.9884 O   0  0  0  0  0  0  0  0  0  0  0  0
  -11.6023   -8.9293   33.2874 C   0  0  0  0  0  0  0  0  0  0  0  0
  -10.7685   -9.0760   34.5038 C   0  0  0  0  0  0  0  0  0  0  0  0
  -11.3308   -8.8653   35.7688 C   0  0  0  0  0  0  0  0  0  0  0  0
   -9.4303   -9.3949   34.4872 C   0  0  0  0  0  0  0  0  0  0  0  0
  -10.6097   -8.9662   36.9286 C   0  0  0  0  0  0  0  0  0  0  0  0
   -8.6987   -9.4980   35.6460 C   0  0  0  0  0  0  0  0  0  0  0  0
   -9.2746   -9.2854   36.8919 C   0  0  0  0  0  0  0  0  0  0  0  0
   -8.5531   -9.3867   38.0568 O   0  0  0  0  0  0  0  0  0  0  0  0
   -8.8660   -7.5040   32.8232 N   0  0  0  0  0  0  0  0  0  0  0  0
   -8.8599   -6.0813   33.0026 C   0  0  2  0  0  0  0  0  0  0  0  0
   -8.7947   -5.8084   34.4698 C   0  0  0  0  0  0  0  0  0  0  0  0
   -9.2406   -6.7040   35.2350 O   0  0  0  0  0  0  0  0  0  0  0  0
   -9.7640   -5.2296   32.2330 C   0  0  0  0  0  0  0  0  0  0  0  0
  -10.9499   -5.7696   31.5502 C   0  0  0  0  0  0  0  0  0  0  0  0
  -12.2116   -5.8940   32.3376 C   0  0  0  0  0  0  0  0  0  0  0  0
  -13.3388   -6.5463   31.5894 C   0  0  0  0  0  0  0  0  0  0  0  0
  -12.9054   -6.7153   30.2078 N   0  0  0  0  0  4  0  0  0  0  0  0
   -8.2805   -4.6439   35.0572 N   0  0  0  0  0  0  0  0  0  0  0  0
   -7.0551   -3.9568   34.6551 C   0  0  2  0  0  0  0  0  0  0  0  0
   -5.8851   -4.5771   35.3071 C   0  0  0  0  0  0  0  0  0  0  0  0
   -5.8228   -4.3623   36.5782 O   0  0  0  0  0  0  0  0  0  0  0  0
   -7.1708   -2.5306   35.2103 C   0  0  0  0  0  0  0  0  0  0  0  0
   -5.9567   -2.0911   35.7125 O   0  0  0  0  0  0  0  0  0  0  0  0
   -4.8645   -5.3472   34.7480 N   0  0  0  0  0  0  0  0  0  0  0  0
   -3.8039   -4.9056   33.8336 C   0  0  2  0  0  0  0  0  0  0  0  0
   -2.5139   -4.9399   34.5227 C   0  0  0  0  0  0  0  0  0  0  0  0
   -2.4696   -4.2745   35.6289 O   0  0  0  0  0  0  0  0  0  0  0  0
   -4.1827   -3.7694   32.9710 C   0  0  0  0  0  0  0  0  0  0  0  0
   -3.9913   -3.8638   31.5151 C   0  0  0  0  0  0  0  0  0  0  0  0
   -4.3811   -5.0672   30.7605 C   0  0  0  0  0  0  0  0  0  0  0  0
   -5.5461   -5.8615   31.2606 C   0  0  0  0  0  0  0  0  0  0  0  0
   -6.0476   -6.9083   30.4627 N   0  0  0  0  0  4  0  0  0  0  0  0
   -1.3427   -5.6274   34.0926 N   0  0  0  0  0  0  0  0  0  0  0  0
   -1.3194   -6.9222   33.4287 C   0  0  2  0  0  0  0  0  0  0  0  0
   -0.7857   -7.8758   34.4494 C   0  0  0  0  0  0  0  0  0  0  0  0
   -1.5289   -7.9400   35.5040 O   0  0  0  0  0  0  0  0  0  0  0  0
   -0.4066   -6.6556   32.2803 C   0  0  0  0  0  0  0  0  0  0  0  0
    0.5087   -5.5280   32.7726 C   0  0  0  0  0  0  0  0  0  0  0  0
    0.0715   -5.2742   34.2022 C   0  0  0  0  0  0  0  0  0  0  0  0
    0.3525   -8.6584   34.4039 N   0  0  0  0  0  0  0  0  0  0  0  0
    0.7257   -9.6652   33.4086 C   0  0  2  0  0  0  0  0  0  0  0  0
   -0.4043  -10.1365   32.5935 C   0  0  0  0  0  0  0  0  0  0  0  0
   -1.5012  -10.2548   33.2919 O   0  0  0  0  0  0  0  0  0  0  0  0
    1.1516  -10.8177   34.2923 C   0  0  0  0  0  0  0  0  0  0  0  0
    1.7216  -10.1610   35.4943 C   0  0  0  0  0  0  0  0  0  0  0  0
    1.5002   -8.6942   35.3385 C   0  0  0  0  0  0  0  0  0  0  0  0
   -0.5189  -10.4671   31.2547 N   0  0  0  0  0  0  0  0  0  0  0  0
   -0.0402  -11.4644   30.3932 C   0  0  2  0  0  0  0  0  0  0  0  0
   -1.0567  -12.3620   29.7865 C   0  0  0  0  0  0  0  0  0  0  0  0
   -1.1131  -12.2871   28.4887 O   0  0  0  0  0  0  0  0  0  0  0  0
    1.1452  -12.2923   30.6820 C   0  0  2  0  0  0  0  0  0  0  0  0
    1.6504  -13.1469   29.5524 C   0  0  0  0  0  0  0  0  0  0  0  0
    0.7898  -13.3399   31.7816 C   0  0  0  0  0  0  0  0  0  0  0  0
    0.4351  -13.6979   28.7999 C   0  0  0  0  0  0  0  0  0  0  0  0
   -1.9438  -13.2539   30.3571 N   0  0  0  0  0  0  0  0  0  0  0  0
   -2.2625  -13.5713   31.7063 C   0  0  2  0  0  0  0  0  0  0  0  0
   -1.5921  -14.7351   32.2910 C   0  0  0  0  0  0  0  0  0  0  0  0
   -0.6612  -14.4206   33.1562 O   0  0  0  0  0  0  0  0  0  0  0  0
   -3.8018  -13.7207   31.8098 C   0  0  0  0  0  0  0  0  0  0  0  0
   -4.6313  -12.1504   31.5409 S   0  0  0  0  0  0  0  0  0  0  0  0
   -1.7838  -16.1108   32.0773 N   0  0  0  0  0  0  0  0  0  0  0  0
   -2.1159  -16.8176   30.8660 C   0  0  2  0  0  0  0  0  0  0  0  0
   -2.2462  -18.2802   31.2019 C   0  0  0  0  0  0  0  0  0  0  0  0
   -2.0143  -18.6286   32.4181 O   0  0  0  0  0  0  0  0  0  0  0  0
   -1.0807  -16.6834   29.7983 C   0  0  0  0  0  0  0  0  0  0  0  0
   -1.4437  -17.2435   28.4661 C   0  0  0  0  0  0  0  0  0  0  0  0
   -1.5943  -16.3971   27.3816 C   0  0  0  0  0  0  0  0  0  0  0  0
   -1.6480  -18.5851   28.2734 C   0  0  0  0  0  0  0  0  0  0  0  0
   -1.9387  -16.9006   26.1589 C   0  0  0  0  0  0  0  0  0  0  0  0
   -1.9949  -19.0647   27.0296 C   0  0  0  0  0  0  0  0  0  0  0  0
   -2.1508  -18.2415   25.9367 C   0  0  0  0  0  0  0  0  0  0  0  0
   -2.5996  -19.3168   30.3231 N   0  0  0  0  0  0  0  0  0  0  0  0
   -3.6764  -19.1800   29.3191 C   0  0  2  0  0  0  0  0  0  0  0  0
   -4.8470  -20.0314   29.6515 C   0  0  0  0  0  0  0  0  0  0  0  0
   -4.5796  -21.2836   29.7642 O   0  0  0  0  0  0  0  0  0  0  0  0
   -2.9344  -19.7866   28.1018 C   0  0  0  0  0  0  0  0  0  0  0  0
   -2.1780  -20.9413   28.6939 C   0  0  0  0  0  0  0  0  0  0  0  0
   -2.1007  -20.6496   30.1537 C   0  0  0  0  0  0  0  0  0  0  0  0
   -6.1717  -19.6213   29.8500 N   0  0  0  0  0  0  0  0  0  0  0  0
   -7.0395  -18.8783   28.9782 C   0  0  2  0  0  0  0  0  0  0  0  0
   -8.4747  -19.2968   29.2691 C   0  0  0  0  0  0  0  0  0  0  0  0
   -8.6782  -20.5376   29.2661 O   0  0  0  0  0  0  0  0  0  0  0  0
   -6.8607  -19.0710   27.5225 C   0  0  0  0  0  0  0  0  0  0  0  0
   -7.4991  -20.3118   27.0504 C   0  0  0  0  0  0  0  0  0  0  0  0
   -8.6781  -20.8042   27.6377 O   0  0  0  0  0  0  0  0  0  0  0  0
   -7.0088  -20.9732   26.1029 O   0  0  0  0  0  0  0  0  0  0  0  0
  -10.6625  -17.6264   29.5132 O   0  0  0  0  0  0  0  0  0  0  0  0
  -13.8011  -17.1451   35.6520 H   0  0  0  0  0  0  0  0  0  0  0  0
  1  2  1  0
  1106  1  0
  1112  1  0
  2  3  1  0
  2112  1  6
  3  4  2  0
  3  5  1  0
  5  6  1  0
  6  7  1  0
  6  9  1  6
  7  8  2  0
  7 16  1  0
  9 10  1  0
 10 11  1  0
 11 12  1  0
 12 13  1  0
 13 14  1  0
 13 15  2  0
 17 16  1  6
 17 18  1  0
 17 20  1  0
 18 19  2  0
 18 22  1  0
 20 21  1  0
 21 85  1  0
 22 23  1  0
 23 24  1  0
 23 26  1  1
 24 25  2  0
 24 34  1  0
 26 27  1  0
 27 28  2  0
 27 29  1  0
 28 30  1  0
 29 31  2  0
 30 32  2  0
 31 32  1  0
 32 33  1  0
 34 35  1  0
 35 36  1  0
 35 38  1  1
 36 37  2  0
 36 43  1  0
 38 39  1  0
 39 40  1  0
 40 41  1  0
 41 42  1  0
 43 44  1  0
 44 45  1  0
 44 47  1  1
 45 46  2  0
 45 49  1  0
 47 48  1  0
 49 50  1  0
 50 51  1  0
 50 53  1  1
 51 52  2  0
 51 58  1  0
 53 54  1  0
 54 55  1  0
 55 56  1  0
 56 57  1  0
 58 59  1  0
 58 64  1  0
 59 60  1  0
 59 62  1  6
 60 61  2  0
 60 65  1  0
 62 63  1  0
 63 64  1  0
 65 66  1  0
 65 71  1  0
 66 67  1  0
 66 69  1  1
 67 68  2  0
 67 72  1  0
 69 70  1  0
 70 71  1  0
 73 72  1  1
 73 74  1  0
 73 76  1  0
 74 75  2  0
 74 80  1  0
 76 77  1  0
 76 78  1  1
 77 79  1  0
 81 80  1  6
 81 82  1  0
 81 84  1  0
 82 83  2  0
 82 86  1  0
 84 85  1  0
 86 87  1  0
 87 88  1  0
 87 90  1  6
 88 89  2  0
 88 97  1  0
 90 91  1  0
 91 92  2  0
 91 93  1  0
 92 94  1  0
 93 95  2  0
 94 96  2  0
 95 96  1  0
 97 98  1  0
 97103  1  0
 98 99  1  0
 98101  1  6
 99100  2  0
 99104  1  0
101102  1  0
102103  1  0
104105  1  0
105106  1  0
105108  1  6
106107  2  0
108109  1  0
109110  1  0
109111  2  0
 15113  1  0
M  CHG  2  42   1  57   1
M  END
$$$$
