
     RDKit          3D

113120  0  0  0  0  0  0  0  0999 V2000
   -5.9361   -6.0324   36.9662 N   0  0  0  0  0  0  0  0  0  0  0  0
   -6.5250   -6.9540   36.1812 C   0  0  2  0  0  0  0  0  0  0  0  0
   -6.9231   -6.5354   34.8126 C   0  0  0  0  0  0  0  0  0  0  0  0
   -6.0934   -5.7503   34.2284 O   0  0  0  0  0  0  0  0  0  0  0  0
   -8.1111   -6.9571   34.1908 N   0  0  0  0  0  0  0  0  0  0  0  0
   -8.6559   -8.3003   34.2340 C   0  0  2  0  0  0  0  0  0  0  0  0
   -9.4475   -8.6664   33.0487 C   0  0  0  0  0  0  0  0  0  0  0  0
  -10.5100   -8.0017   32.8292 O   0  0  0  0  0  0  0  0  0  0  0  0
   -9.4038   -8.4903   35.5274 C   0  0  0  0  0  0  0  0  0  0  0  0
   -9.0053   -7.4936   36.5646 C   0  0  0  0  0  0  0  0  0  0  0  0
  -10.1752   -6.5772   36.8900 C   0  0  0  0  0  0  0  0  0  0  0  0
  -10.6176   -5.9376   35.6813 N   0  0  0  0  0  0  0  0  0  0  0  0
  -11.6009   -4.9301   35.7238 C   0  0  0  0  0  0  0  0  0  0  0  0
  -11.8417   -4.0772   34.6344 N   0  0  0  0  0  0  0  0  0  0  0  0
  -12.3120   -4.7843   36.8203 N   0  0  0  0  0  0  0  0  0  0  0  0
   -9.1555   -9.6792   32.1194 N   0  0  0  0  0  0  0  0  0  0  0  0
   -8.5279  -10.9585   32.4105 C   0  0  2  0  0  0  0  0  0  0  0  0
   -9.1610  -11.5990   33.5951 C   0  0  0  0  0  0  0  0  0  0  0  0
   -8.3740  -11.6356   34.6137 O   0  0  0  0  0  0  0  0  0  0  0  0
   -7.0479  -10.7025   32.5840 C   0  0  0  0  0  0  0  0  0  0  0  0
   -6.0265  -11.6938   31.4271 S   0  0  0  0  0  0  0  0  0  0  0  0
  -10.4303  -12.1312   33.7233 N   0  0  0  0  0  0  0  0  0  0  0  0
  -11.1036  -13.1876   32.9843 C   0  0  2  0  0  0  0  0  0  0  0  0
  -10.1342  -14.1700   32.4607 C   0  0  0  0  0  0  0  0  0  0  0  0
   -9.1539  -14.3071   33.3141 O   0  0  0  0  0  0  0  0  0  0  0  0
  -12.1073  -12.6917   32.0099 C   0  0  0  0  0  0  0  0  0  0  0  0
  -12.0490  -13.3915   30.7048 C   0  0  0  0  0  0  0  0  0  0  0  0
  -12.4763  -14.7210   30.6025 C   0  0  0  0  0  0  0  0  0  0  0  0
  -11.5713  -12.8235   29.5464 C   0  0  0  0  0  0  0  0  0  0  0  0
  -12.4296  -15.4283   29.4308 C   0  0  0  0  0  0  0  0  0  0  0  0
  -11.5205  -13.5258   28.3661 C   0  0  0  0  0  0  0  0  0  0  0  0
  -11.9493  -14.8444   28.2844 C   0  0  0  0  0  0  0  0  0  0  0  0
  -11.9039  -15.5557   27.1099 O   0  0  0  0  0  0  0  0  0  0  0  0
  -10.0449  -14.9304   31.3252 N   0  0  0  0  0  0  0  0  0  0  0  0
  -10.5933  -16.1635   30.8405 C   0  0  2  0  0  0  0  0  0  0  0  0
  -10.9253  -15.9767   29.3961 C   0  0  0  0  0  0  0  0  0  0  0  0
  -11.1568  -14.7992   29.0136 O   0  0  0  0  0  0  0  0  0  0  0  0
  -11.5731  -16.9048   31.6315 C   0  0  0  0  0  0  0  0  0  0  0  0
  -12.9296  -17.1792   31.1325 C   0  0  0  0  0  0  0  0  0  0  0  0
  -13.3511  -16.5214   29.8609 C   0  0  0  0  0  0  0  0  0  0  0  0
  -12.6029  -16.9962   28.6483 C   0  0  0  0  0  0  0  0  0  0  0  0
  -13.3999  -16.6458   27.4789 N   0  0  0  0  0  4  0  0  0  0  0  0
  -10.9985  -17.0002   28.4408 N   0  0  0  0  0  0  0  0  0  0  0  0
  -10.0541  -18.1068   28.3039 C   0  0  2  0  0  0  0  0  0  0  0  0
   -8.8933  -17.6894   27.4932 C   0  0  0  0  0  0  0  0  0  0  0  0
   -9.1677  -17.5098   26.2451 O   0  0  0  0  0  0  0  0  0  0  0  0
  -10.7894  -19.1911   27.5044 C   0  0  0  0  0  0  0  0  0  0  0  0
  -10.2985  -19.2766   26.2118 O   0  0  0  0  0  0  0  0  0  0  0  0
   -7.5730  -17.4663   27.8861 N   0  0  0  0  0  0  0  0  0  0  0  0
   -6.5872  -18.4605   28.3285 C   0  0  2  0  0  0  0  0  0  0  0  0
   -5.5381  -18.5969   27.3181 C   0  0  0  0  0  0  0  0  0  0  0  0
   -5.9602  -18.8704   26.1283 O   0  0  0  0  0  0  0  0  0  0  0  0
   -7.1742  -19.6426   28.9892 C   0  0  0  0  0  0  0  0  0  0  0  0
   -6.3058  -20.5682   29.7336 C   0  0  0  0  0  0  0  0  0  0  0  0
   -5.1667  -21.2455   29.0907 C   0  0  0  0  0  0  0  0  0  0  0  0
   -5.2910  -21.6058   27.6439 C   0  0  0  0  0  0  0  0  0  0  0  0
   -4.2535  -22.3379   27.0344 N   0  0  0  0  0  4  0  0  0  0  0  0
   -4.1366  -18.4531   27.5286 N   0  0  0  0  0  0  0  0  0  0  0  0
   -3.5115  -17.4939   28.4269 C   0  0  2  0  0  0  0  0  0  0  0  0
   -2.8815  -16.4738   27.5333 C   0  0  0  0  0  0  0  0  0  0  0  0
   -3.7440  -15.8712   26.7838 O   0  0  0  0  0  0  0  0  0  0  0  0
   -2.5498  -18.3584   29.1691 C   0  0  0  0  0  0  0  0  0  0  0  0
   -2.2259  -19.4960   28.1931 C   0  0  0  0  0  0  0  0  0  0  0  0
   -3.0004  -19.1555   26.9347 C   0  0  0  0  0  0  0  0  0  0  0  0
   -1.5519  -16.1155   27.4169 N   0  0  0  0  0  0  0  0  0  0  0  0
   -0.6476  -15.6221   28.4572 C   0  0  2  0  0  0  0  0  0  0  0  0
   -1.3418  -15.1143   29.6504 C   0  0  0  0  0  0  0  0  0  0  0  0
   -2.4355  -14.4685   29.3477 O   0  0  0  0  0  0  0  0  0  0  0  0
   -0.0159  -14.4326   27.7668 C   0  0  0  0  0  0  0  0  0  0  0  0
    0.0243  -14.8235   26.3362 C   0  0  0  0  0  0  0  0  0  0  0  0
   -0.6805  -16.1329   26.2199 C   0  0  0  0  0  0  0  0  0  0  0  0
   -1.0594  -15.1948   31.0027 N   0  0  0  0  0  0  0  0  0  0  0  0
   -0.0892  -14.6997   31.8856 C   0  0  2  0  0  0  0  0  0  0  0  0
   -0.5662  -13.7757   32.9464 C   0  0  0  0  0  0  0  0  0  0  0  0
   -0.3867  -14.2273   34.1534 O   0  0  0  0  0  0  0  0  0  0  0  0
    1.2336  -14.2113   31.4544 C   0  0  2  0  0  0  0  0  0  0  0  0
    1.3390  -12.7377   31.1736 C   0  0  0  0  0  0  0  0  0  0  0  0
    1.6018  -14.8562   30.0828 C   0  0  0  0  0  0  0  0  0  0  0  0
   -0.0487  -12.1204   31.3744 C   0  0  0  0  0  0  0  0  0  0  0  0
   -1.1618  -12.5315   32.8732 N   0  0  0  0  0  0  0  0  0  0  0  0
   -1.6045  -11.7342   31.7818 C   0  0  2  0  0  0  0  0  0  0  0  0
   -0.6868  -10.6987   31.3005 C   0  0  0  0  0  0  0  0  0  0  0  0
   -0.1265  -10.9906   30.1537 O   0  0  0  0  0  0  0  0  0  0  0  0
   -2.9710  -11.1135   32.1687 C   0  0  0  0  0  0  0  0  0  0  0  0
   -4.2443  -12.3721   32.3124 S   0  0  0  0  0  0  0  0  0  0  0  0
   -0.3175   -9.4641   31.8609 N   0  0  0  0  0  0  0  0  0  0  0  0
   -0.1211   -9.1008   33.2418 C   0  0  2  0  0  0  0  0  0  0  0  0
    0.2263   -7.6360   33.2923 C   0  0  0  0  0  0  0  0  0  0  0  0
    0.3224   -7.0139   32.1706 O   0  0  0  0  0  0  0  0  0  0  0  0
    0.9841   -9.8567   33.9025 C   0  0  0  0  0  0  0  0  0  0  0  0
    1.3463  -11.1594   33.2763 C   0  0  0  0  0  0  0  0  0  0  0  0
    0.4840  -11.7503   32.3693 C   0  0  0  0  0  0  0  0  0  0  0  0
    2.5144  -11.8103   33.5774 C   0  0  0  0  0  0  0  0  0  0  0  0
    0.8025  -12.9506   31.7991 C   0  0  0  0  0  0  0  0  0  0  0  0
    2.8093  -13.0196   32.9876 C   0  0  0  0  0  0  0  0  0  0  0  0
    1.9665  -13.6263   32.0831 C   0  0  0  0  0  0  0  0  0  0  0  0
    0.4573   -6.8656   34.4434 N   0  0  0  0  0  0  0  0  0  0  0  0
   -0.3726   -6.9818   35.6616 C   0  0  2  0  0  0  0  0  0  0  0  0
   -1.1934   -5.7643   35.8837 C   0  0  0  0  0  0  0  0  0  0  0  0
   -0.5163   -4.6758   35.9788 O   0  0  0  0  0  0  0  0  0  0  0  0
    0.7657   -7.0276   36.7117 C   0  0  0  0  0  0  0  0  0  0  0  0
    1.7568   -6.0235   36.1964 C   0  0  0  0  0  0  0  0  0  0  0  0
    1.4305   -5.8595   34.7511 C   0  0  0  0  0  0  0  0  0  0  0  0
   -2.5875   -5.6834   35.9952 N   0  0  0  0  0  0  0  0  0  0  0  0
   -3.4744   -6.3687   36.8947 C   0  0  2  0  0  0  0  0  0  0  0  0
   -4.6854   -5.4775   37.1365 C   0  0  0  0  0  0  0  0  0  0  0  0
   -4.4179   -4.2963   37.4745 O   0  0  0  0  0  0  0  0  0  0  0  0
   -2.9520   -6.6963   38.2393 C   0  0  0  0  0  0  0  0  0  0  0  0
   -3.9911   -7.2807   39.1046 C   0  0  0  0  0  0  0  0  0  0  0  0
   -4.5237   -8.5585   38.8576 O   0  0  0  0  0  0  0  0  0  0  0  0
   -4.4368   -6.6536   40.0964 O   0  0  0  0  0  0  0  0  0  0  0  0
   -7.3330   -6.2679   37.1779 O   0  0  0  0  0  0  0  0  0  0  0  0
  -12.7359   -5.5837   37.3114 H   0  0  0  0  0  0  0  0  0  0  0  0
  1  2  1  0
  1106  1  0
  1112  1  0
  2  3  1  0
  2112  1  1
  3  4  2  0
  3  5  1  0
  5  6  1  0
  6  7  1  0
  6  9  1  1
  7  8  2  0
  7 16  1  0
  9 10  1  0
 10 11  1  0
 11 12  1  0
 12 13  1  0
 13 14  1  0
 13 15  2  0
 17 16  1  1
 17 18  1  0
 17 20  1  0
 18 19  2  0
 18 22  1  0
 20 21  1  0
 21 85  1  0
 22 23  1  0
 23 24  1  0
 23 26  1  6
 24 25  2  0
 24 34  1  0
 26 27  1  0
 27 28  2  0
 27 29  1  0
 28 30  1  0
 29 31  2  0
 30 32  2  0
 31 32  1  0
 32 33  1  0
 34 35  1  0
 35 36  1  0
 35 38  1  1
 36 37  2  0
 36 43  1  0
 38 39  1  0
 39 40  1  0
 40 41  1  0
 41 42  1  0
 43 44  1  0
 44 45  1  0
 44 47  1  6
 45 46  2  0
 45 49  1  0
 47 48  1  0
 49 50  1  0
 50 51  1  0
 50 53  1  6
 51 52  2  0
 51 58  1  0
 53 54  1  0
 54 55  1  0
 55 56  1  0
 56 57  1  0
 58 59  1  0
 58 64  1  0
 59 60  1  0
 59 62  1  6
 60 61  2  0
 60 65  1  0
 62 63  1  0
 63 64  1  0
 65 66  1  0
 65 71  1  0
 66 67  1  0
 66 69  1  6
 67 68  2  0
 67 72  1  0
 69 70  1  0
 70 71  1  0
 73 72  1  6
 73 74  1  0
 73 76  1  0
 74 75  2  0
 74 80  1  0
 76 77  1  0
 76 78  1  6
 77 79  1  0
 81 80  1  1
 81 82  1  0
 81 84  1  0
 82 83  2  0
 82 86  1  0
 84 85  1  0
 86 87  1  0
 87 88  1  0
 87 90  1  6
 88 89  2  0
 88 97  1  0
 90 91  1  0
 91 92  2  0
 91 93  1  0
 92 94  1  0
 93 95  2  0
 94 96  2  0
 95 96  1  0
 97 98  1  0
 97103  1  0
 98 99  1  0
 98101  1  1
 99100  2  0
 99104  1  0
101102  1  0
102103  1  0
104105  1  0
105106  1  0
105108  1  1
106107  2  0
108109  1  0
109110  1  0
109111  2  0
 15113  1  0
M  CHG  2  42   1  57   1
M  END
$$$$
