
     RDKit          3D

113120  0  0  0  0  0  0  0  0999 V2000
   -6.3766  -19.6057   28.4352 N   0  0  0  0  0  0  0  0  0  0  0  0
   -6.8867  -18.5758   29.1363 C   0  0  2  0  0  0  0  0  0  0  0  0
   -6.9871  -18.7328   30.6101 C   0  0  0  0  0  0  0  0  0  0  0  0
   -5.9994  -19.3452   31.1535 O   0  0  0  0  0  0  0  0  0  0  0  0
   -8.0711  -18.2535   31.3659 N   0  0  0  0  0  0  0  0  0  0  0  0
   -8.7275  -16.9734   31.1828 C   0  0  2  0  0  0  0  0  0  0  0  0
   -9.3143  -16.4175   32.4126 C   0  0  0  0  0  0  0  0  0  0  0  0
  -10.2569  -17.0756   32.9580 O   0  0  0  0  0  0  0  0  0  0  0  0
   -9.7155  -17.0805   30.0512 C   0  0  0  0  0  0  0  0  0  0  0  0
  -10.0438  -18.4978   29.7173 C   0  0  0  0  0  0  0  0  0  0  0  0
  -11.0734  -19.0434   30.6954 C   0  0  0  0  0  0  0  0  0  0  0  0
  -12.3386  -18.4096   30.4434 N   0  0  0  0  0  0  0  0  0  0  0  0
  -13.5203  -18.9186   31.0163 C   0  0  0  0  0  0  0  0  0  0  0  0
  -14.6699  -18.1287   31.1791 N   0  0  0  0  0  0  0  0  0  0  0  0
  -13.5435  -20.1722   31.4129 N   0  0  0  0  0  0  0  0  0  0  0  0
   -8.9431  -15.2274   33.0610 N   0  0  0  0  0  0  0  0  0  0  0  0
   -8.4923  -14.0028   32.4188 C   0  0  2  0  0  0  0  0  0  0  0  0
   -9.3864  -13.6417   31.2854 C   0  0  0  0  0  0  0  0  0  0  0  0
   -8.8077  -13.7706   30.1422 O   0  0  0  0  0  0  0  0  0  0  0  0
   -7.0537  -14.2167   32.0058 C   0  0  0  0  0  0  0  0  0  0  0  0
   -5.9244  -12.9672   32.7326 S   0  0  0  0  0  0  0  0  0  0  0  0
  -10.6983  -13.2073   31.3150 N   0  0  0  0  0  0  0  0  0  0  0  0
  -11.3111  -12.0588   31.9636 C   0  0  2  0  0  0  0  0  0  0  0  0
  -10.3493  -10.9464   32.0928 C   0  0  0  0  0  0  0  0  0  0  0  0
   -9.5595  -10.9347   31.0516 O   0  0  0  0  0  0  0  0  0  0  0  0
  -12.0707  -12.3987   33.1924 C   0  0  0  0  0  0  0  0  0  0  0  0
  -11.3772  -13.3864   34.0527 C   0  0  0  0  0  0  0  0  0  0  0  0
  -10.6623  -14.4415   33.4728 C   0  0  0  0  0  0  0  0  0  0  0  0
  -11.3979  -13.3594   35.4281 C   0  0  0  0  0  0  0  0  0  0  0  0
  -10.0169  -15.3965   34.2122 C   0  0  0  0  0  0  0  0  0  0  0  0
  -10.7534  -14.3138   36.1782 C   0  0  0  0  0  0  0  0  0  0  0  0
  -10.0488  -15.3531   35.5844 C   0  0  0  0  0  0  0  0  0  0  0  0
   -9.4003  -16.3121   36.3242 O   0  0  0  0  0  0  0  0  0  0  0  0
  -10.1167   -9.9720   33.0266 N   0  0  0  0  0  0  0  0  0  0  0  0
  -10.6696   -8.6950   33.3729 C   0  0  2  0  0  0  0  0  0  0  0  0
  -10.7110   -8.6067   34.8635 C   0  0  0  0  0  0  0  0  0  0  0  0
  -10.7659   -9.6945   35.4962 O   0  0  0  0  0  0  0  0  0  0  0  0
  -11.8388   -8.1737   32.6684 C   0  0  0  0  0  0  0  0  0  0  0  0
  -12.7072   -9.0386   31.8547 C   0  0  0  0  0  0  0  0  0  0  0  0
  -12.1780  -10.3735   31.4481 C   0  0  0  0  0  0  0  0  0  0  0  0
  -12.4272  -11.4629   32.4516 C   0  0  0  0  0  0  0  0  0  0  0  0
  -12.6312  -12.7011   31.7097 N   0  0  0  0  0  4  0  0  0  0  0  0
  -10.6935   -7.4186   35.6074 N   0  0  0  0  0  0  0  0  0  0  0  0
   -9.8384   -6.2627   35.3463 C   0  0  2  0  0  0  0  0  0  0  0  0
   -8.5162   -6.4543   35.9738 C   0  0  0  0  0  0  0  0  0  0  0  0
   -8.5382   -6.3952   37.2628 O   0  0  0  0  0  0  0  0  0  0  0  0
  -10.5031   -5.0777   36.0602 C   0  0  0  0  0  0  0  0  0  0  0  0
   -9.6076   -4.0353   36.2355 O   0  0  0  0  0  0  0  0  0  0  0  0
   -7.2773   -6.6873   35.3753 N   0  0  0  0  0  0  0  0  0  0  0  0
   -6.4793   -5.7547   34.5694 C   0  0  2  0  0  0  0  0  0  0  0  0
   -5.2769   -5.3698   35.3084 C   0  0  0  0  0  0  0  0  0  0  0  0
   -5.4932   -4.8859   36.4863 O   0  0  0  0  0  0  0  0  0  0  0  0
   -7.2777   -4.7571   33.8304 C   0  0  0  0  0  0  0  0  0  0  0  0
   -8.0728   -5.1774   32.6659 C   0  0  0  0  0  0  0  0  0  0  0  0
   -9.2020   -6.1138   32.7978 C   0  0  0  0  0  0  0  0  0  0  0  0
  -10.3591   -5.7008   33.6517 C   0  0  0  0  0  0  0  0  0  0  0  0
  -11.6079   -5.4751   33.0408 N   0  0  0  0  0  4  0  0  0  0  0  0
   -3.9315   -5.4850   34.8546 N   0  0  0  0  0  0  0  0  0  0  0  0
   -3.4038   -6.5725   34.0442 C   0  0  2  0  0  0  0  0  0  0  0  0
   -2.5341   -7.3631   34.9686 C   0  0  0  0  0  0  0  0  0  0  0  0
   -3.1880   -7.8454   35.9729 O   0  0  0  0  0  0  0  0  0  0  0  0
   -2.6739   -5.8275   32.9786 C   0  0  0  0  0  0  0  0  0  0  0  0
   -2.2735   -4.5044   33.6424 C   0  0  0  0  0  0  0  0  0  0  0  0
   -2.7694   -4.6247   35.0703 C   0  0  0  0  0  0  0  0  0  0  0  0
   -1.1802   -7.6268   34.8835 N   0  0  0  0  0  0  0  0  0  0  0  0
   -0.4453   -8.2730   33.7946 C   0  0  2  0  0  0  0  0  0  0  0  0
   -1.3023   -9.0406   32.8782 C   0  0  0  0  0  0  0  0  0  0  0  0
   -2.2617   -9.6652   33.5064 O   0  0  0  0  0  0  0  0  0  0  0  0
    0.4029   -9.2697   34.5546 C   0  0  0  0  0  0  0  0  0  0  0  0
    0.6737   -8.6008   35.8508 C   0  0  0  0  0  0  0  0  0  0  0  0
   -0.1069   -7.3298   35.8594 C   0  0  0  0  0  0  0  0  0  0  0  0
   -1.2832   -9.2171   31.5059 N   0  0  0  0  0  0  0  0  0  0  0  0
   -0.4546   -9.8305   30.5557 C   0  0  2  0  0  0  0  0  0  0  0  0
   -1.0389  -10.9688   29.8009 C   0  0  0  0  0  0  0  0  0  0  0  0
   -1.1254  -10.7581   28.5198 O   0  0  0  0  0  0  0  0  0  0  0  0
    0.9620  -10.1593   30.7990 C   0  0  2  0  0  0  0  0  0  0  0  0
    1.6260  -11.0379   29.7749 C   0  0  0  0  0  0  0  0  0  0  0  0
    1.0815  -10.9971   32.1092 C   0  0  0  0  0  0  0  0  0  0  0  0
    0.6501  -11.2199   28.6081 C   0  0  0  0  0  0  0  0  0  0  0  0
   -1.5017  -12.2008   30.2206 N   0  0  0  0  0  0  0  0  0  0  0  0
   -1.6646  -12.7856   31.5067 C   0  0  2  0  0  0  0  0  0  0  0  0
   -0.5884  -13.6594   31.9802 C   0  0  0  0  0  0  0  0  0  0  0  0
    0.1475  -13.1188   32.9185 O   0  0  0  0  0  0  0  0  0  0  0  0
   -3.0208  -13.5358   31.5207 C   0  0  0  0  0  0  0  0  0  0  0  0
   -4.4019  -12.3935   31.4012 S   0  0  0  0  0  0  0  0  0  0  0  0
   -0.2248  -14.9616   31.5969 N   0  0  0  0  0  0  0  0  0  0  0  0
   -0.2572  -15.5822   30.2965 C   0  0  2  0  0  0  0  0  0  0  0  0
    0.1991  -17.0094   30.4509 C   0  0  0  0  0  0  0  0  0  0  0  0
    0.5542  -17.3907   31.6268 O   0  0  0  0  0  0  0  0  0  0  0  0
    0.6376  -14.9204   29.3010 C   0  0  0  0  0  0  0  0  0  0  0  0
   -0.0431  -14.1108   28.2516 C   0  0  0  0  0  0  0  0  0  0  0  0
    0.6323  -13.7836   27.0888 C   0  0  0  0  0  0  0  0  0  0  0  0
   -1.3294  -13.6615   28.4012 C   0  0  0  0  0  0  0  0  0  0  0  0
    0.0200  -13.0315   26.1262 C   0  0  0  0  0  0  0  0  0  0  0  0
   -1.9214  -12.9046   27.4144 C   0  0  0  0  0  0  0  0  0  0  0  0
   -1.2687  -12.5666   26.2498 C   0  0  0  0  0  0  0  0  0  0  0  0
    0.2781  -17.9812   29.4404 N   0  0  0  0  0  0  0  0  0  0  0  0
   -0.7699  -18.1495   28.4110 C   0  0  2  0  0  0  0  0  0  0  0  0
   -1.5103  -19.4249   28.5861 C   0  0  0  0  0  0  0  0  0  0  0  0
   -0.7718  -20.4767   28.5624 O   0  0  0  0  0  0  0  0  0  0  0  0
    0.1459  -18.2587   27.1661 C   0  0  0  0  0  0  0  0  0  0  0  0
    1.2977  -19.0915   27.6520 C   0  0  0  0  0  0  0  0  0  0  0  0
    1.2600  -18.9804   29.1380 C   0  0  0  0  0  0  0  0  0  0  0  0
   -2.8887  -19.5932   28.7703 N   0  0  0  0  0  0  0  0  0  0  0  0
   -3.9823  -19.1440   27.9533 C   0  0  2  0  0  0  0  0  0  0  0  0
   -5.1363  -20.1226   28.1262 C   0  0  0  0  0  0  0  0  0  0  0  0
   -4.8357  -21.3332   27.9673 O   0  0  0  0  0  0  0  0  0  0  0  0
   -3.7480  -19.0654   26.4948 C   0  0  0  0  0  0  0  0  0  0  0  0
   -4.6256  -19.9827   25.7476 C   0  0  0  0  0  0  0  0  0  0  0  0
   -5.9358  -19.6204   25.3877 O   0  0  0  0  0  0  0  0  0  0  0  0
   -4.2298  -21.1237   25.4054 O   0  0  0  0  0  0  0  0  0  0  0  0
   -7.8035  -19.4844   28.4647 O   0  0  0  0  0  0  0  0  0  0  0  0
  -14.3356  -20.7982   31.2117 H   0  0  0  0  0  0  0  0  0  0  0  0
  1  2  1  0
  1106  1  0
  1112  1  0
  2  3  1  0
  2112  1  6
  3  4  2  0
  3  5  1  0
  5  6  1  0
  6  7  1  0
  6  9  1  6
  7  8  2  0
  7 16  1  0
  9 10  1  0
 10 11  1  0
 11 12  1  0
 12 13  1  0
 13 14  1  0
 13 15  2  0
 17 16  1  6
 17 18  1  0
 17 20  1  0
 18 19  2  0
 18 22  1  0
 20 21  1  0
 21 85  1  0
 22 23  1  0
 23 24  1  0
 23 26  1  1
 24 25  2  0
 24 34  1  0
 26 27  1  0
 27 28  2  0
 27 29  1  0
 28 30  1  0
 29 31  2  0
 30 32  2  0
 31 32  1  0
 32 33  1  0
 34 35  1  0
 35 36  1  0
 35 38  1  6
 36 37  2  0
 36 43  1  0
 38 39  1  0
 39 40  1  0
 40 41  1  0
 41 42  1  0
 43 44  1  0
 44 45  1  0
 44 47  1  1
 45 46  2  0
 45 49  1  0
 47 48  1  0
 49 50  1  0
 50 51  1  0
 50 53  1  1
 51 52  2  0
 51 58  1  0
 53 54  1  0
 54 55  1  0
 55 56  1  0
 56 57  1  0
 58 59  1  0
 58 64  1  0
 59 60  1  0
 59 62  1  6
 60 61  2  0
 60 65  1  0
 62 63  1  0
 63 64  1  0
 65 66  1  0
 65 71  1  0
 66 67  1  0
 66 69  1  1
 67 68  2  0
 67 72  1  0
 69 70  1  0
 70 71  1  0
 73 72  1  1
 73 74  1  0
 73 76  1  0
 74 75  2  0
 74 80  1  0
 76 77  1  0
 76 78  1  1
 77 79  1  0
 81 80  1  6
 81 82  1  0
 81 84  1  0
 82 83  2  0
 82 86  1  0
 84 85  1  0
 86 87  1  0
 87 88  1  0
 87 90  1  6
 88 89  2  0
 88 97  1  0
 90 91  1  0
 91 92  2  0
 91 93  1  0
 92 94  1  0
 93 95  2  0
 94 96  2  0
 95 96  1  0
 97 98  1  0
 97103  1  0
 98 99  1  0
 98101  1  6
 99100  2  0
 99104  1  0
101102  1  0
102103  1  0
104105  1  0
105106  1  0
105108  1  6
106107  2  0
108109  1  0
109110  1  0
109111  2  0
 15113  1  0
M  CHG  2  42   1  57   1
M  END
$$$$
