
     RDKit          3D

113120  0  0  0  0  0  0  0  0999 V2000
  -12.6974  -13.1121   32.9611 N   0  0  0  0  0  0  0  0  0  0  0  0
  -11.6575  -12.2622   33.0537 C   0  0  2  0  0  0  0  0  0  0  0  0
  -10.9399  -12.1961   34.3528 C   0  0  0  0  0  0  0  0  0  0  0  0
  -10.7943  -13.3252   34.9441 O   0  0  0  0  0  0  0  0  0  0  0  0
  -10.4513  -10.9994   34.9052 N   0  0  0  0  0  0  0  0  0  0  0  0
   -9.7844   -9.9412   34.1714 C   0  0  2  0  0  0  0  0  0  0  0  0
   -8.8143   -9.1751   34.9698 C   0  0  0  0  0  0  0  0  0  0  0  0
   -9.2663   -8.5115   35.9569 O   0  0  0  0  0  0  0  0  0  0  0  0
  -10.8186   -9.0734   33.5039 C   0  0  0  0  0  0  0  0  0  0  0  0
  -11.7023   -8.3840   34.4897 C   0  0  0  0  0  0  0  0  0  0  0  0
  -11.6622   -9.1075   35.8274 C   0  0  0  0  0  0  0  0  0  0  0  0
  -11.5801   -8.1345   36.8821 N   0  0  0  0  0  0  0  0  0  0  0  0
  -12.7332   -7.4535   37.3184 C   0  0  0  0  0  0  0  0  0  0  0  0
  -13.1017   -6.2025   36.7975 N   0  0  0  0  0  0  0  0  0  0  0  0
  -13.4844   -8.0078   38.2445 N   0  0  0  0  0  0  0  0  0  0  0  0
   -7.4267   -9.0961   34.7624 N   0  0  0  0  0  0  0  0  0  0  0  0
   -6.7476   -9.1031   33.4763 C   0  0  2  0  0  0  0  0  0  0  0  0
   -7.4020   -8.1600   32.5294 C   0  0  0  0  0  0  0  0  0  0  0  0
   -8.0014   -8.7680   31.5653 O   0  0  0  0  0  0  0  0  0  0  0  0
   -6.7310  -10.5332   32.9861 C   0  0  0  0  0  0  0  0  0  0  0  0
   -5.0311  -11.1424   32.6644 S   0  0  0  0  0  0  0  0  0  0  0  0
   -7.4402   -6.7787   32.5626 N   0  0  0  0  0  0  0  0  0  0  0  0
   -6.3716   -5.7920   32.5665 C   0  0  2  0  0  0  0  0  0  0  0  0
   -5.1750   -6.3030   31.8693 C   0  0  0  0  0  0  0  0  0  0  0  0
   -5.5466   -7.0580   30.8693 O   0  0  0  0  0  0  0  0  0  0  0  0
   -6.1288   -5.1764   33.8949 C   0  0  0  0  0  0  0  0  0  0  0  0
   -5.2791   -3.9639   33.8296 C   0  0  0  0  0  0  0  0  0  0  0  0
   -5.5299   -2.9833   32.8620 C   0  0  0  0  0  0  0  0  0  0  0  0
   -4.2104   -3.7259   34.6627 C   0  0  0  0  0  0  0  0  0  0  0  0
   -4.7700   -1.8509   32.7374 C   0  0  0  0  0  0  0  0  0  0  0  0
   -3.4421   -2.5925   34.5448 C   0  0  0  0  0  0  0  0  0  0  0  0
   -3.7068   -1.6307   33.5783 C   0  0  0  0  0  0  0  0  0  0  0  0
   -2.9461   -0.4937   33.4519 O   0  0  0  0  0  0  0  0  0  0  0  0
   -3.8232   -6.1641   32.0392 N   0  0  0  0  0  0  0  0  0  0  0  0
   -2.8176   -5.1944   31.7157 C   0  0  2  0  0  0  0  0  0  0  0  0
   -1.8877   -5.0976   32.8808 C   0  0  0  0  0  0  0  0  0  0  0  0
   -2.3533   -5.4140   34.0076 O   0  0  0  0  0  0  0  0  0  0  0  0
   -3.1796   -3.9299   31.0793 C   0  0  0  0  0  0  0  0  0  0  0  0
   -2.7311   -2.6338   31.6117 C   0  0  0  0  0  0  0  0  0  0  0  0
   -2.1439   -2.6090   32.9835 C   0  0  0  0  0  0  0  0  0  0  0  0
   -1.5636   -3.9221   33.4252 C   0  0  0  0  0  0  0  0  0  0  0  0
   -0.2370   -3.6527   33.9666 N   0  0  0  0  0  4  0  0  0  0  0  0
   -0.5490   -4.6862   32.8194 N   0  0  0  0  0  0  0  0  0  0  0  0
    0.4201   -5.0890   31.8026 C   0  0  2  0  0  0  0  0  0  0  0  0
    1.0305   -6.3834   32.1642 C   0  0  0  0  0  0  0  0  0  0  0  0
    1.8256   -6.3187   33.1787 O   0  0  0  0  0  0  0  0  0  0  0  0
    1.5395   -4.0399   31.8490 C   0  0  0  0  0  0  0  0  0  0  0  0
    2.7829   -4.6303   31.6922 O   0  0  0  0  0  0  0  0  0  0  0  0
    0.8654   -7.6364   31.5726 N   0  0  0  0  0  0  0  0  0  0  0  0
    1.3294   -8.0736   30.2499 C   0  0  2  0  0  0  0  0  0  0  0  0
    2.4054   -9.0526   30.4044 C   0  0  0  0  0  0  0  0  0  0  0  0
    3.3991   -8.6597   31.1301 O   0  0  0  0  0  0  0  0  0  0  0  0
    1.4151   -6.9910   29.2502 C   0  0  0  0  0  0  0  0  0  0  0  0
    0.1849   -6.4651   28.6378 C   0  0  0  0  0  0  0  0  0  0  0  0
   -1.0725   -6.3584   29.3976 C   0  0  0  0  0  0  0  0  0  0  0  0
   -0.9945   -5.9085   30.8224 C   0  0  0  0  0  0  0  0  0  0  0  0
   -2.1819   -5.5402   31.4845 N   0  0  0  0  0  4  0  0  0  0  0  0
    2.4453  -10.3617   29.8441 N   0  0  0  0  0  0  0  0  0  0  0  0
    1.3028  -11.2502   29.6916 C   0  0  2  0  0  0  0  0  0  0  0  0
    1.5031  -12.3241   30.7127 C   0  0  0  0  0  0  0  0  0  0  0  0
    1.5376  -11.8613   31.9183 O   0  0  0  0  0  0  0  0  0  0  0  0
    1.4528  -11.6938   28.2760 C   0  0  0  0  0  0  0  0  0  0  0  0
    2.9584  -11.5954   28.0016 C   0  0  0  0  0  0  0  0  0  0  0  0
    3.5610  -11.1467   29.3188 C   0  0  0  0  0  0  0  0  0  0  0  0
    1.6500  -13.6863   30.5317 N   0  0  0  0  0  0  0  0  0  0  0  0
    0.7376  -14.6201   29.8692 C   0  0  2  0  0  0  0  0  0  0  0  0
   -0.6304  -14.1014   29.7177 C   0  0  0  0  0  0  0  0  0  0  0  0
   -1.0135  -13.4088   30.7563 O   0  0  0  0  0  0  0  0  0  0  0  0
    0.6795  -15.7486   30.8759 C   0  0  0  0  0  0  0  0  0  0  0  0
    2.0247  -15.7455   31.5014 C   0  0  0  0  0  0  0  0  0  0  0  0
    2.7608  -14.5706   30.9514 C   0  0  0  0  0  0  0  0  0  0  0  0
   -1.5639  -14.2058   28.7016 N   0  0  0  0  0  0  0  0  0  0  0  0
   -2.3426  -15.2135   28.1151 C   0  0  2  0  0  0  0  0  0  0  0  0
   -3.8159  -15.0767   28.2483 C   0  0  0  0  0  0  0  0  0  0  0  0
   -4.4343  -14.9455   27.1111 O   0  0  0  0  0  0  0  0  0  0  0  0
   -2.0338  -16.6512   28.2240 C   0  0  2  0  0  0  0  0  0  0  0  0
   -2.4303  -17.5069   27.0527 C   0  0  0  0  0  0  0  0  0  0  0  0
   -2.8505  -17.2685   29.4008 C   0  0  0  0  0  0  0  0  0  0  0  0
   -3.8935  -17.1991   26.7195 C   0  0  0  0  0  0  0  0  0  0  0  0
   -4.6346  -15.0651   29.3608 N   0  0  0  0  0  0  0  0  0  0  0  0
   -4.3685  -15.0929   30.7576 C   0  0  2  0  0  0  0  0  0  0  0  0
   -4.4353  -16.3976   31.4205 C   0  0  0  0  0  0  0  0  0  0  0  0
   -3.2612  -16.8815   31.7390 O   0  0  0  0  0  0  0  0  0  0  0  0
   -5.3230  -14.0835   31.4448 C   0  0  0  0  0  0  0  0  0  0  0  0
   -4.9347  -12.3932   30.9773 S   0  0  0  0  0  0  0  0  0  0  0  0
   -5.5371  -17.1994   31.7643 N   0  0  0  0  0  0  0  0  0  0  0  0
   -6.7786  -17.4091   31.0630 C   0  0  2  0  0  0  0  0  0  0  0  0
   -7.6317  -18.3316   31.8936 C   0  0  0  0  0  0  0  0  0  0  0  0
   -7.1253  -18.7760   32.9892 O   0  0  0  0  0  0  0  0  0  0  0  0
   -6.6020  -18.0349   29.7188 C   0  0  0  0  0  0  0  0  0  0  0  0
   -6.6079  -17.0988   28.5596 C   0  0  0  0  0  0  0  0  0  0  0  0
   -6.1941  -15.7893   28.7305 C   0  0  0  0  0  0  0  0  0  0  0  0
   -7.0243  -17.4886   27.3132 C   0  0  0  0  0  0  0  0  0  0  0  0
   -6.2074  -14.9206   27.6757 C   0  0  0  0  0  0  0  0  0  0  0  0
   -7.0276  -16.5912   26.2683 C   0  0  0  0  0  0  0  0  0  0  0  0
   -6.6209  -15.2837   26.4150 C   0  0  0  0  0  0  0  0  0  0  0  0
   -8.9356  -18.7629   31.6007 N   0  0  0  0  0  0  0  0  0  0  0  0
   -9.9734  -17.8584   31.0613 C   0  0  2  0  0  0  0  0  0  0  0  0
  -11.0497  -17.6063   32.0530 C   0  0  0  0  0  0  0  0  0  0  0  0
  -11.6417  -18.6655   32.4771 O   0  0  0  0  0  0  0  0  0  0  0  0
  -10.5191  -18.7773   29.9396 C   0  0  0  0  0  0  0  0  0  0  0  0
  -10.5257  -20.1382   30.5754 C   0  0  0  0  0  0  0  0  0  0  0  0
   -9.5803  -20.0370   31.7235 C   0  0  0  0  0  0  0  0  0  0  0  0
  -11.4716  -16.3700   32.5590 N   0  0  0  0  0  0  0  0  0  0  0  0
  -11.9319  -15.2034   31.8572 C   0  0  2  0  0  0  0  0  0  0  0  0
  -12.9064  -14.4603   32.7613 C   0  0  0  0  0  0  0  0  0  0  0  0
  -13.8256  -15.1670   33.2477 O   0  0  0  0  0  0  0  0  0  0  0  0
  -12.6605  -15.4221   30.5885 C   0  0  0  0  0  0  0  0  0  0  0  0
  -13.6850  -14.3889   30.3586 C   0  0  0  0  0  0  0  0  0  0  0  0
  -13.3458  -13.0306   30.2259 O   0  0  0  0  0  0  0  0  0  0  0  0
  -14.9007  -14.6892   30.2726 O   0  0  0  0  0  0  0  0  0  0  0  0
  -13.0057  -11.7322   33.1902 O   0  0  0  0  0  0  0  0  0  0  0  0
  -13.0871   -8.5596   39.0175 H   0  0  0  0  0  0  0  0  0  0  0  0
  1  2  1  0
  1106  1  0
  1112  1  0
  2  3  1  0
  2112  1  1
  3  4  2  0
  3  5  1  0
  5  6  1  0
  6  7  1  0
  6  9  1  1
  7  8  2  0
  7 16  1  0
  9 10  1  0
 10 11  1  0
 11 12  1  0
 12 13  1  0
 13 14  1  0
 13 15  2  0
 17 16  1  1
 17 18  1  0
 17 20  1  0
 18 19  2  0
 18 22  1  0
 20 21  1  0
 21 85  1  0
 22 23  1  0
 23 24  1  0
 23 26  1  1
 24 25  2  0
 24 34  1  0
 26 27  1  0
 27 28  2  0
 27 29  1  0
 28 30  1  0
 29 31  2  0
 30 32  2  0
 31 32  1  0
 32 33  1  0
 34 35  1  0
 35 36  1  0
 35 38  1  1
 36 37  2  0
 36 43  1  0
 38 39  1  0
 39 40  1  0
 40 41  1  0
 41 42  1  0
 43 44  1  0
 44 45  1  0
 44 47  1  1
 45 46  2  0
 45 49  1  0
 47 48  1  0
 49 50  1  0
 50 51  1  0
 50 53  1  6
 51 52  2  0
 51 58  1  0
 53 54  1  0
 54 55  1  0
 55 56  1  0
 56 57  1  0
 58 59  1  0
 58 64  1  0
 59 60  1  0
 59 62  1  6
 60 61  2  0
 60 65  1  0
 62 63  1  0
 63 64  1  0
 65 66  1  0
 65 71  1  0
 66 67  1  0
 66 69  1  1
 67 68  2  0
 67 72  1  0
 69 70  1  0
 70 71  1  0
 73 72  1  1
 73 74  1  0
 73 76  1  0
 74 75  2  0
 74 80  1  0
 76 77  1  0
 76 78  1  1
 77 79  1  0
 81 80  1  6
 81 82  1  0
 81 84  1  0
 82 83  2  0
 82 86  1  0
 84 85  1  0
 86 87  1  0
 87 88  1  0
 87 90  1  6
 88 89  2  0
 88 97  1  0
 90 91  1  0
 91 92  2  0
 91 93  1  0
 92 94  1  0
 93 95  2  0
 94 96  2  0
 95 96  1  0
 97 98  1  0
 97103  1  0
 98 99  1  0
 98101  1  6
 99100  2  0
 99104  1  0
101102  1  0
102103  1  0
104105  1  0
105106  1  0
105108  1  6
106107  2  0
108109  1  0
109110  1  0
109111  2  0
 15113  1  0
M  CHG  2  42   1  57   1
M  END
$$$$
