
     RDKit          3D

113120  0  0  0  0  0  0  0  0999 V2000
    0.9839   -7.7814   36.1331 N   0  0  0  0  0  0  0  0  0  0  0  0
   -0.3203   -7.7975   35.7999 C   0  0  2  0  0  0  0  0  0  0  0  0
   -0.7362   -6.9970   34.6196 C   0  0  0  0  0  0  0  0  0  0  0  0
    0.0920   -7.0142   33.6400 O   0  0  0  0  0  0  0  0  0  0  0  0
   -1.9394   -6.2723   34.5630 N   0  0  0  0  0  0  0  0  0  0  0  0
   -3.2264   -6.7336   35.0465 C   0  0  2  0  0  0  0  0  0  0  0  0
   -4.3773   -6.1733   34.3206 C   0  0  0  0  0  0  0  0  0  0  0  0
   -4.5521   -4.9147   34.3870 O   0  0  0  0  0  0  0  0  0  0  0  0
   -3.3029   -6.5173   36.5350 C   0  0  0  0  0  0  0  0  0  0  0  0
   -2.7324   -5.2010   36.9469 C   0  0  0  0  0  0  0  0  0  0  0  0
   -2.3176   -4.4012   35.7211 C   0  0  0  0  0  0  0  0  0  0  0  0
   -1.5730   -3.2476   36.1461 N   0  0  0  0  0  0  0  0  0  0  0  0
   -0.2863   -2.9971   35.6310 C   0  0  0  0  0  0  0  0  0  0  0  0
    0.1077   -3.4450   34.3597 N   0  0  0  0  0  0  0  0  0  0  0  0
    0.5714   -2.3251   36.3672 N   0  0  0  0  0  0  0  0  0  0  0  0
   -5.3149   -6.8821   33.5504 N   0  0  0  0  0  0  0  0  0  0  0  0
   -5.8128   -8.2217   33.8202 C   0  0  2  0  0  0  0  0  0  0  0  0
   -6.2018   -8.3616   35.2497 C   0  0  0  0  0  0  0  0  0  0  0  0
   -5.4152   -9.1481   35.8987 O   0  0  0  0  0  0  0  0  0  0  0  0
   -4.7375   -9.1942   33.3913 C   0  0  0  0  0  0  0  0  0  0  0  0
   -5.3393  -10.3959   32.1429 S   0  0  0  0  0  0  0  0  0  0  0  0
   -7.2542   -7.7754   35.9275 N   0  0  0  0  0  0  0  0  0  0  0  0
   -8.6886   -7.8226   35.6917 C   0  0  2  0  0  0  0  0  0  0  0  0
   -9.0778   -9.0881   35.0389 C   0  0  0  0  0  0  0  0  0  0  0  0
   -8.3204  -10.0553   35.4847 O   0  0  0  0  0  0  0  0  0  0  0  0
   -9.2364   -6.5871   35.0785 C   0  0  0  0  0  0  0  0  0  0  0  0
   -8.6680   -6.2980   33.7406 C   0  0  0  0  0  0  0  0  0  0  0  0
   -8.6884   -4.9914   33.2377 C   0  0  0  0  0  0  0  0  0  0  0  0
   -8.1193   -7.2511   32.9140 C   0  0  0  0  0  0  0  0  0  0  0  0
   -8.1972   -4.6631   32.0022 C   0  0  0  0  0  0  0  0  0  0  0  0
   -7.6244   -6.9309   31.6725 C   0  0  0  0  0  0  0  0  0  0  0  0
   -7.6534   -5.6284   31.1909 C   0  0  0  0  0  0  0  0  0  0  0  0
   -7.1608   -5.2968   29.9520 O   0  0  0  0  0  0  0  0  0  0  0  0
  -10.0161   -9.4482   34.1085 N   0  0  0  0  0  0  0  0  0  0  0  0
  -11.4187   -9.7456   34.0914 C   0  0  2  0  0  0  0  0  0  0  0  0
  -11.9990   -9.1303   32.8601 C   0  0  0  0  0  0  0  0  0  0  0  0
  -11.3914   -8.1365   32.3806 O   0  0  0  0  0  0  0  0  0  0  0  0
  -12.2209   -9.6235   35.3066 C   0  0  0  0  0  0  0  0  0  0  0  0
  -12.7969   -8.3389   35.7336 C   0  0  0  0  0  0  0  0  0  0  0  0
  -12.1810   -7.0876   35.2022 C   0  0  0  0  0  0  0  0  0  0  0  0
  -13.1004   -6.2705   34.3402 C   0  0  0  0  0  0  0  0  0  0  0  0
  -13.2744   -4.9777   34.9910 N   0  0  0  0  0  4  0  0  0  0  0  0
  -13.1565   -9.5682   32.2015 N   0  0  0  0  0  0  0  0  0  0  0  0
  -13.5087  -10.9609   31.9335 C   0  0  2  0  0  0  0  0  0  0  0  0
  -12.8550  -11.4227   30.6932 C   0  0  0  0  0  0  0  0  0  0  0  0
  -13.3359  -10.8886   29.6213 O   0  0  0  0  0  0  0  0  0  0  0  0
  -15.0208  -10.9694   31.6701 C   0  0  0  0  0  0  0  0  0  0  0  0
  -15.3640  -11.9623   30.7671 O   0  0  0  0  0  0  0  0  0  0  0  0
  -11.8115  -12.3345   30.5288 N   0  0  0  0  0  0  0  0  0  0  0  0
  -11.8422  -13.7851   30.7539 C   0  0  2  0  0  0  0  0  0  0  0  0
  -11.7372  -14.4844   29.4732 C   0  0  0  0  0  0  0  0  0  0  0  0
  -12.6160  -14.1403   28.5913 O   0  0  0  0  0  0  0  0  0  0  0  0
  -12.8036  -14.2171   31.7872 C   0  0  0  0  0  0  0  0  0  0  0  0
  -14.0541  -14.8815   31.3874 C   0  0  0  0  0  0  0  0  0  0  0  0
  -14.1557  -15.6484   30.1339 C   0  0  0  0  0  0  0  0  0  0  0  0
  -15.1636  -16.7521   30.0672 C   0  0  0  0  0  0  0  0  0  0  0  0
  -15.1938  -17.5766   28.9256 N   0  0  0  0  0  4  0  0  0  0  0  0
  -10.7754  -15.4766   29.1271 N   0  0  0  0  0  0  0  0  0  0  0  0
   -9.3810  -15.4828   29.5438 C   0  0  2  0  0  0  0  0  0  0  0  0
   -8.6029  -15.1469   28.3118 C   0  0  0  0  0  0  0  0  0  0  0  0
   -8.9096  -13.9871   27.8328 O   0  0  0  0  0  0  0  0  0  0  0  0
   -9.2173  -16.8836   30.0277 C   0  0  0  0  0  0  0  0  0  0  0  0
  -10.2476  -17.6882   29.2260 C   0  0  0  0  0  0  0  0  0  0  0  0
  -10.8895  -16.6752   28.2981 C   0  0  0  0  0  0  0  0  0  0  0  0
   -7.6422  -15.8918   27.6543 N   0  0  0  0  0  0  0  0  0  0  0  0
   -6.3878  -16.4299   28.1836 C   0  0  2  0  0  0  0  0  0  0  0  0
   -5.9516  -15.7893   29.4338 C   0  0  0  0  0  0  0  0  0  0  0  0
   -6.1885  -14.5053   29.4391 O   0  0  0  0  0  0  0  0  0  0  0  0
   -5.4072  -16.0215   27.1056 C   0  0  0  0  0  0  0  0  0  0  0  0
   -6.2066  -16.0574   25.8564 C   0  0  0  0  0  0  0  0  0  0  0  0
   -7.6162  -16.3499   26.2466 C   0  0  0  0  0  0  0  0  0  0  0  0
   -5.3537  -16.2836   30.5796 N   0  0  0  0  0  0  0  0  0  0  0  0
   -4.1199  -16.8430   30.9408 C   0  0  2  0  0  0  0  0  0  0  0  0
   -3.3022  -16.0753   31.9149 C   0  0  0  0  0  0  0  0  0  0  0  0
   -3.0918  -16.7058   33.0335 O   0  0  0  0  0  0  0  0  0  0  0  0
   -3.1827  -17.4454   29.9749 C   0  0  2  0  0  0  0  0  0  0  0  0
   -1.8601  -16.7492   29.8090 C   0  0  0  0  0  0  0  0  0  0  0  0
   -3.7978  -17.3742   28.5433 C   0  0  0  0  0  0  0  0  0  0  0  0
   -2.0635  -15.2680   30.1430 C   0  0  0  0  0  0  0  0  0  0  0  0
   -2.7320  -14.8194   31.8385 N   0  0  0  0  0  0  0  0  0  0  0  0
   -2.7876  -13.7902   30.8586 C   0  0  2  0  0  0  0  0  0  0  0  0
   -1.6858  -13.7303   29.8951 C   0  0  0  0  0  0  0  0  0  0  0  0
   -2.0181  -14.1402   28.6969 O   0  0  0  0  0  0  0  0  0  0  0  0
   -2.9388  -12.4363   31.5977 C   0  0  0  0  0  0  0  0  0  0  0  0
   -4.5292  -12.3155   32.4237 S   0  0  0  0  0  0  0  0  0  0  0  0
   -0.3532  -13.3107   30.0464 N   0  0  0  0  0  0  0  0  0  0  0  0
    0.5383  -13.4610   31.1689 C   0  0  2  0  0  0  0  0  0  0  0  0
    1.8413  -12.7903   30.8209 C   0  0  0  0  0  0  0  0  0  0  0  0
    1.9424  -12.2712   29.6483 O   0  0  0  0  0  0  0  0  0  0  0  0
    0.8322  -14.8856   31.5061 C   0  0  0  0  0  0  0  0  0  0  0  0
    0.0113  -15.4780   32.5995 C   0  0  0  0  0  0  0  0  0  0  0  0
    0.0604  -16.8407   32.8359 C   0  0  0  0  0  0  0  0  0  0  0  0
   -0.8119  -14.7140   33.3853 C   0  0  0  0  0  0  0  0  0  0  0  0
   -0.6980  -17.3943   33.8286 C   0  0  0  0  0  0  0  0  0  0  0  0
   -1.5656  -15.2991   34.3786 C   0  0  0  0  0  0  0  0  0  0  0  0
   -1.5332  -16.6525   34.6315 C   0  0  0  0  0  0  0  0  0  0  0  0
    2.9703  -12.6660   31.6466 N   0  0  0  0  0  0  0  0  0  0  0  0
    2.8755  -12.3284   33.0830 C   0  0  2  0  0  0  0  0  0  0  0  0
    3.4104  -10.9717   33.3635 C   0  0  0  0  0  0  0  0  0  0  0  0
    4.6322  -10.7965   33.0044 O   0  0  0  0  0  0  0  0  0  0  0  0
    3.8614  -13.3889   33.6341 C   0  0  0  0  0  0  0  0  0  0  0  0
    4.9679  -13.3982   32.6184 C   0  0  0  0  0  0  0  0  0  0  0  0
    4.3735  -12.8016   31.3884 C   0  0  0  0  0  0  0  0  0  0  0  0
    2.7396   -9.8962   33.9597 N   0  0  0  0  0  0  0  0  0  0  0  0
    2.0709   -9.8262   35.2299 C   0  0  2  0  0  0  0  0  0  0  0  0
    2.1537   -8.3902   35.7304 C   0  0  0  0  0  0  0  0  0  0  0  0
    3.3076   -7.8908   35.7257 O   0  0  0  0  0  0  0  0  0  0  0  0
    2.6146  -10.6572   36.3262 C   0  0  0  0  0  0  0  0  0  0  0  0
    1.8329  -10.5102   37.5661 C   0  0  0  0  0  0  0  0  0  0  0  0
    2.2245  -11.1354   38.7633 O   0  0  0  0  0  0  0  0  0  0  0  0
    0.7864   -9.8177   37.5944 O   0  0  0  0  0  0  0  0  0  0  0  0
    0.1129   -6.9238   36.8797 O   0  0  0  0  0  0  0  0  0  0  0  0
    0.2735   -1.7243   37.1484 H   0  0  0  0  0  0  0  0  0  0  0  0
  1  2  1  0
  1106  1  0
  1112  1  0
  2  3  1  0
  2112  1  1
  3  4  2  0
  3  5  1  0
  5  6  1  0
  6  7  1  0
  6  9  1  1
  7  8  2  0
  7 16  1  0
  9 10  1  0
 10 11  1  0
 11 12  1  0
 12 13  1  0
 13 14  1  0
 13 15  2  0
 17 16  1  1
 17 18  1  0
 17 20  1  0
 18 19  2  0
 18 22  1  0
 20 21  1  0
 21 85  1  0
 22 23  1  0
 23 24  1  0
 23 26  1  6
 24 25  2  0
 24 34  1  0
 26 27  1  0
 27 28  2  0
 27 29  1  0
 28 30  1  0
 29 31  2  0
 30 32  2  0
 31 32  1  0
 32 33  1  0
 34 35  1  0
 35 36  1  0
 35 38  1  1
 36 37  2  0
 36 43  1  0
 38 39  1  0
 39 40  1  0
 40 41  1  0
 41 42  1  0
 43 44  1  0
 44 45  1  0
 44 47  1  6
 45 46  2  0
 45 49  1  0
 47 48  1  0
 49 50  1  0
 50 51  1  0
 50 53  1  6
 51 52  2  0
 51 58  1  0
 53 54  1  0
 54 55  1  0
 55 56  1  0
 56 57  1  0
 58 59  1  0
 58 64  1  0
 59 60  1  0
 59 62  1  6
 60 61  2  0
 60 65  1  0
 62 63  1  0
 63 64  1  0
 65 66  1  0
 65 71  1  0
 66 67  1  0
 66 69  1  6
 67 68  2  0
 67 72  1  0
 69 70  1  0
 70 71  1  0
 73 72  1  6
 73 74  1  0
 73 76  1  0
 74 75  2  0
 74 80  1  0
 76 77  1  0
 76 78  1  6
 77 79  1  0
 81 80  1  1
 81 82  1  0
 81 84  1  0
 82 83  2  0
 82 86  1  0
 84 85  1  0
 86 87  1  0
 87 88  1  0
 87 90  1  6
 88 89  2  0
 88 97  1  0
 90 91  1  0
 91 92  2  0
 91 93  1  0
 92 94  1  0
 93 95  2  0
 94 96  2  0
 95 96  1  0
 97 98  1  0
 97103  1  0
 98 99  1  0
 98101  1  1
 99100  2  0
 99104  1  0
101102  1  0
102103  1  0
104105  1  0
105106  1  0
105108  1  1
106107  2  0
108109  1  0
109110  1  0
109111  2  0
 15113  1  0
M  CHG  2  42   1  57   1
M  END
$$$$
