
     RDKit          3D

113120  0  0  0  0  0  0  0  0999 V2000
   -6.9376   -8.6508   38.3121 N   0  0  0  0  0  0  0  0  0  0  0  0
   -7.2341   -8.9783   37.0405 C   0  0  2  0  0  0  0  0  0  0  0  0
   -6.7182   -8.0914   35.9661 C   0  0  0  0  0  0  0  0  0  0  0  0
   -5.5349   -7.6379   36.1660 O   0  0  0  0  0  0  0  0  0  0  0  0
   -7.4545   -7.7648   34.8141 N   0  0  0  0  0  0  0  0  0  0  0  0
   -8.2654   -8.6857   34.0412 C   0  0  2  0  0  0  0  0  0  0  0  0
   -8.3680   -8.3438   32.6136 C   0  0  0  0  0  0  0  0  0  0  0  0
   -8.9350   -7.2440   32.3167 O   0  0  0  0  0  0  0  0  0  0  0  0
   -9.6055   -8.8466   34.7094 C   0  0  0  0  0  0  0  0  0  0  0  0
   -9.9850   -7.6488   35.5149 C   0  0  0  0  0  0  0  0  0  0  0  0
   -9.0327   -7.4819   36.6895 C   0  0  0  0  0  0  0  0  0  0  0  0
   -8.8467   -6.0797   36.9444 N   0  0  0  0  0  0  0  0  0  0  0  0
   -8.1456   -5.6472   38.0868 C   0  0  0  0  0  0  0  0  0  0  0  0
   -7.4855   -6.5457   38.9407 N   0  0  0  0  0  0  0  0  0  0  0  0
   -8.1126   -4.3616   38.3613 N   0  0  0  0  0  0  0  0  0  0  0  0
   -7.9014   -9.1048   31.5284 N   0  0  0  0  0  0  0  0  0  0  0  0
   -7.8827  -10.5564   31.4409 C   0  0  2  0  0  0  0  0  0  0  0  0
   -9.1894  -11.1272   31.8664 C   0  0  0  0  0  0  0  0  0  0  0  0
   -9.1064  -11.7699   32.9792 O   0  0  0  0  0  0  0  0  0  0  0  0
   -6.7157  -11.0404   32.2715 C   0  0  0  0  0  0  0  0  0  0  0  0
   -5.5345  -12.0497   31.2965 S   0  0  0  0  0  0  0  0  0  0  0  0
  -10.4188  -11.0513   31.2391 N   0  0  0  0  0  0  0  0  0  0  0  0
  -10.8428  -11.4685   29.9118 C   0  0  2  0  0  0  0  0  0  0  0  0
  -10.0381  -12.6091   29.4317 C   0  0  0  0  0  0  0  0  0  0  0  0
   -9.7375  -13.3818   30.4420 O   0  0  0  0  0  0  0  0  0  0  0  0
  -11.0047  -10.3466   28.9538 C   0  0  0  0  0  0  0  0  0  0  0  0
  -12.2850  -10.3954   28.2089 C   0  0  0  0  0  0  0  0  0  0  0  0
  -12.2987  -10.1888   26.8241 C   0  0  0  0  0  0  0  0  0  0  0  0
  -13.5099  -10.6159   28.7953 C   0  0  0  0  0  0  0  0  0  0  0  0
  -13.4497  -10.2019   26.0823 C   0  0  0  0  0  0  0  0  0  0  0  0
  -14.6702  -10.6306   28.0588 C   0  0  0  0  0  0  0  0  0  0  0  0
  -14.6634  -10.4236   26.6854 C   0  0  0  0  0  0  0  0  0  0  0  0
  -15.8169  -10.4369   25.9392 O   0  0  0  0  0  0  0  0  0  0  0  0
   -9.5596  -13.0107   28.2129 N   0  0  0  0  0  0  0  0  0  0  0  0
  -10.0641  -13.7002   27.0613 C   0  0  2  0  0  0  0  0  0  0  0  0
   -9.5148  -13.0223   25.8487 C   0  0  0  0  0  0  0  0  0  0  0  0
   -9.1921  -11.8110   25.9717 O   0  0  0  0  0  0  0  0  0  0  0  0
  -11.4670  -14.1022   26.9891 C   0  0  0  0  0  0  0  0  0  0  0  0
  -11.9328  -15.3993   27.5040 C   0  0  0  0  0  0  0  0  0  0  0  0
  -11.6954  -15.7031   28.9457 C   0  0  0  0  0  0  0  0  0  0  0  0
  -10.3269  -16.2476   29.2398 C   0  0  0  0  0  0  0  0  0  0  0  0
  -10.4933  -17.3851   30.1362 N   0  0  0  0  0  4  0  0  0  0  0  0
   -9.3314  -13.6231   24.5954 N   0  0  0  0  0  0  0  0  0  0  0  0
   -8.7849  -14.9582   24.3627 C   0  0  2  0  0  0  0  0  0  0  0  0
   -7.3097  -14.9096   24.3459 C   0  0  0  0  0  0  0  0  0  0  0  0
   -6.8202  -14.3137   23.3111 O   0  0  0  0  0  0  0  0  0  0  0  0
   -9.2338  -15.3564   22.9500 C   0  0  0  0  0  0  0  0  0  0  0  0
   -8.2164  -15.1618   22.0301 O   0  0  0  0  0  0  0  0  0  0  0  0
   -6.3966  -15.4068   25.2767 N   0  0  0  0  0  0  0  0  0  0  0  0
   -6.0955  -16.8121   25.5774 C   0  0  2  0  0  0  0  0  0  0  0  0
   -4.7479  -17.1378   25.1103 C   0  0  0  0  0  0  0  0  0  0  0  0
   -4.5264  -16.8799   23.8642 O   0  0  0  0  0  0  0  0  0  0  0  0
   -7.2271  -17.7340   25.3579 C   0  0  0  0  0  0  0  0  0  0  0  0
   -7.8742  -17.7927   24.0377 C   0  0  0  0  0  0  0  0  0  0  0  0
   -7.1707  -18.3164   22.8544 C   0  0  0  0  0  0  0  0  0  0  0  0
   -5.9363  -17.6032   22.4001 C   0  0  0  0  0  0  0  0  0  0  0  0
   -5.3505  -17.9729   21.1737 N   0  0  0  0  0  4  0  0  0  0  0  0
   -3.6930  -17.6926   25.8904 N   0  0  0  0  0  0  0  0  0  0  0  0
   -3.4179  -17.3780   27.2844 C   0  0  2  0  0  0  0  0  0  0  0  0
   -2.1699  -16.5547   27.2609 C   0  0  0  0  0  0  0  0  0  0  0  0
   -2.3099  -15.4617   26.5868 O   0  0  0  0  0  0  0  0  0  0  0  0
   -3.2621  -18.7381   27.8753 C   0  0  0  0  0  0  0  0  0  0  0  0
   -2.7773  -19.6085   26.7095 C   0  0  0  0  0  0  0  0  0  0  0  0
   -2.6438  -18.6493   25.5427 C   0  0  0  0  0  0  0  0  0  0  0  0
   -0.9432  -16.8097   27.8441 N   0  0  0  0  0  0  0  0  0  0  0  0
   -0.6396  -17.0555   29.2551 C   0  0  2  0  0  0  0  0  0  0  0  0
   -1.7019  -16.6162   30.1727 C   0  0  0  0  0  0  0  0  0  0  0  0
   -2.2547  -15.4974   29.7881 O   0  0  0  0  0  0  0  0  0  0  0  0
    0.5457  -16.1396   29.4713 C   0  0  0  0  0  0  0  0  0  0  0  0
    1.2375  -16.1267   28.1591 C   0  0  0  0  0  0  0  0  0  0  0  0
    0.3912  -16.9064   27.2100 C   0  0  0  0  0  0  0  0  0  0  0  0
   -2.2145  -17.1571   31.3386 N   0  0  0  0  0  0  0  0  0  0  0  0
   -1.7736  -17.3906   32.6489 C   0  0  2  0  0  0  0  0  0  0  0  0
   -2.4824  -16.6569   33.7289 C   0  0  0  0  0  0  0  0  0  0  0  0
   -3.0971  -17.4333   34.5729 O   0  0  0  0  0  0  0  0  0  0  0  0
   -0.3514  -17.4503   33.0331 C   0  0  2  0  0  0  0  0  0  0  0  0
    0.3482  -16.1296   33.2001 C   0  0  0  0  0  0  0  0  0  0  0  0
    0.4642  -18.1369   31.8946 C   0  0  0  0  0  0  0  0  0  0  0  0
   -0.3055  -15.1272   32.2437 C   0  0  0  0  0  0  0  0  0  0  0  0
   -2.6003  -15.3054   33.9890 N   0  0  0  0  0  0  0  0  0  0  0  0
   -2.1696  -14.1448   33.2889 C   0  0  2  0  0  0  0  0  0  0  0  0
   -0.9050  -13.5420   33.7172 C   0  0  0  0  0  0  0  0  0  0  0  0
    0.0808  -13.7483   32.8806 O   0  0  0  0  0  0  0  0  0  0  0  0
   -3.3155  -13.1026   33.3435 C   0  0  0  0  0  0  0  0  0  0  0  0
   -4.7452  -13.6521   32.4052 S   0  0  0  0  0  0  0  0  0  0  0  0
   -0.5847  -12.7907   34.8608 N   0  0  0  0  0  0  0  0  0  0  0  0
   -1.0666  -12.9199   36.2130 C   0  0  2  0  0  0  0  0  0  0  0  0
   -0.4331  -11.8309   37.0385 C   0  0  0  0  0  0  0  0  0  0  0  0
    0.4026  -11.0529   36.4463 O   0  0  0  0  0  0  0  0  0  0  0  0
   -0.7236  -14.2299   36.8421 C   0  0  0  0  0  0  0  0  0  0  0  0
   -1.8730  -15.1322   37.1338 C   0  0  0  0  0  0  0  0  0  0  0  0
   -1.7880  -16.0404   38.1746 C   0  0  0  0  0  0  0  0  0  0  0  0
   -3.0252  -15.1040   36.3919 C   0  0  0  0  0  0  0  0  0  0  0  0
   -2.8325  -16.8800   38.4418 C   0  0  0  0  0  0  0  0  0  0  0  0
   -4.0621  -15.9624   36.6837 C   0  0  0  0  0  0  0  0  0  0  0  0
   -3.9996  -16.8743   37.7138 C   0  0  0  0  0  0  0  0  0  0  0  0
   -0.6591  -11.5675   38.3991 N   0  0  0  0  0  0  0  0  0  0  0  0
   -2.0062  -11.6095   39.0074 C   0  0  2  0  0  0  0  0  0  0  0  0
   -2.4697  -10.2561   39.4063 C   0  0  0  0  0  0  0  0  0  0  0  0
   -1.6919   -9.6482   40.2296 O   0  0  0  0  0  0  0  0  0  0  0  0
   -1.6592  -12.4245   40.2785 C   0  0  0  0  0  0  0  0  0  0  0  0
   -0.3255  -11.8726   40.6940 C   0  0  0  0  0  0  0  0  0  0  0  0
    0.2228  -11.2166   39.4729 C   0  0  0  0  0  0  0  0  0  0  0  0
   -3.6315   -9.5944   38.9886 N   0  0  0  0  0  0  0  0  0  0  0  0
   -5.0028  -10.0175   39.0652 C   0  0  2  0  0  0  0  0  0  0  0  0
   -5.8761   -8.7754   39.1832 C   0  0  0  0  0  0  0  0  0  0  0  0
   -5.5334   -7.9677   40.0839 O   0  0  0  0  0  0  0  0  0  0  0  0
   -5.3821  -10.8755   40.2089 C   0  0  0  0  0  0  0  0  0  0  0  0
   -6.4277  -11.8467   39.8437 C   0  0  0  0  0  0  0  0  0  0  0  0
   -6.1357  -12.9950   39.0864 O   0  0  0  0  0  0  0  0  0  0  0  0
   -7.6200  -11.6800   40.1991 O   0  0  0  0  0  0  0  0  0  0  0  0
   -8.2373   -8.2849   37.8341 O   0  0  0  0  0  0  0  0  0  0  0  0
   -7.4903   -3.9686   39.0811 H   0  0  0  0  0  0  0  0  0  0  0  0
  1  2  1  0
  1106  1  0
  1112  1  0
  2  3  1  0
  2112  1  1
  3  4  2  0
  3  5  1  0
  5  6  1  0
  6  7  1  0
  6  9  1  1
  7  8  2  0
  7 16  1  0
  9 10  1  0
 10 11  1  0
 11 12  1  0
 12 13  1  0
 13 14  1  0
 13 15  2  0
 17 16  1  1
 17 18  1  0
 17 20  1  0
 18 19  2  0
 18 22  1  0
 20 21  1  0
 21 85  1  0
 22 23  1  0
 23 24  1  0
 23 26  1  6
 24 25  2  0
 24 34  1  0
 26 27  1  0
 27 28  2  0
 27 29  1  0
 28 30  1  0
 29 31  2  0
 30 32  2  0
 31 32  1  0
 32 33  1  0
 34 35  1  0
 35 36  1  0
 35 38  1  6
 36 37  2  0
 36 43  1  0
 38 39  1  0
 39 40  1  0
 40 41  1  0
 41 42  1  0
 43 44  1  0
 44 45  1  0
 44 47  1  6
 45 46  2  0
 45 49  1  0
 47 48  1  0
 49 50  1  0
 50 51  1  0
 50 53  1  6
 51 52  2  0
 51 58  1  0
 53 54  1  0
 54 55  1  0
 55 56  1  0
 56 57  1  0
 58 59  1  0
 58 64  1  0
 59 60  1  0
 59 62  1  1
 60 61  2  0
 60 65  1  0
 62 63  1  0
 63 64  1  0
 65 66  1  0
 65 71  1  0
 66 67  1  0
 66 69  1  1
 67 68  2  0
 67 72  1  0
 69 70  1  0
 70 71  1  0
 73 72  1  6
 73 74  1  0
 73 76  1  0
 74 75  2  0
 74 80  1  0
 76 77  1  0
 76 78  1  6
 77 79  1  0
 81 80  1  1
 81 82  1  0
 81 84  1  0
 82 83  2  0
 82 86  1  0
 84 85  1  0
 86 87  1  0
 87 88  1  0
 87 90  1  1
 88 89  2  0
 88 97  1  0
 90 91  1  0
 91 92  2  0
 91 93  1  0
 92 94  1  0
 93 95  2  0
 94 96  2  0
 95 96  1  0
 97 98  1  0
 97103  1  0
 98 99  1  0
 98101  1  1
 99100  2  0
 99104  1  0
101102  1  0
102103  1  0
104105  1  0
105106  1  0
105108  1  1
106107  2  0
108109  1  0
109110  1  0
109111  2  0
 15113  1  0
M  CHG  2  42   1  57   1
M  END
$$$$
