
     RDKit          3D

113120  0  0  0  0  0  0  0  0999 V2000
   -8.3586  -19.9574   29.2574 N   0  0  0  0  0  0  0  0  0  0  0  0
   -8.6160  -18.7677   29.8326 C   0  0  2  0  0  0  0  0  0  0  0  0
   -8.6492  -18.7168   31.3169 C   0  0  0  0  0  0  0  0  0  0  0  0
   -7.7639  -19.4401   31.8991 O   0  0  0  0  0  0  0  0  0  0  0  0
   -9.5705  -17.9420   32.0428 N   0  0  0  0  0  0  0  0  0  0  0  0
   -9.9804  -16.5902   31.7145 C   0  0  2  0  0  0  0  0  0  0  0  0
  -10.3695  -15.7804   32.8800 C   0  0  0  0  0  0  0  0  0  0  0  0
  -11.3833  -16.1655   33.5454 O   0  0  0  0  0  0  0  0  0  0  0  0
  -11.0415  -16.6397   30.6470 C   0  0  0  0  0  0  0  0  0  0  0  0
  -10.5532  -17.2821   29.3913 C   0  0  0  0  0  0  0  0  0  0  0  0
   -9.3352  -16.5408   28.8609 C   0  0  0  0  0  0  0  0  0  0  0  0
   -9.6339  -15.1363   28.7985 N   0  0  0  0  0  0  0  0  0  0  0  0
   -8.6846  -14.2248   28.2967 C   0  0  0  0  0  0  0  0  0  0  0  0
   -7.3040  -14.4169   28.4675 N   0  0  0  0  0  0  0  0  0  0  0  0
   -9.1078  -13.1601   27.6512 N   0  0  0  0  0  0  0  0  0  0  0  0
   -9.7365  -14.6160   33.3471 N   0  0  0  0  0  0  0  0  0  0  0  0
   -9.1021  -13.5947   32.5288 C   0  0  2  0  0  0  0  0  0  0  0  0
   -9.9819  -13.2078   31.3926 C   0  0  0  0  0  0  0  0  0  0  0  0
   -9.5135  -13.5901   30.2556 O   0  0  0  0  0  0  0  0  0  0  0  0
   -7.7607  -14.1391   32.0927 C   0  0  0  0  0  0  0  0  0  0  0  0
   -6.3688  -13.0574   32.6000 S   0  0  0  0  0  0  0  0  0  0  0  0
  -11.1818  -12.5219   31.4144 N   0  0  0  0  0  0  0  0  0  0  0  0
  -11.5205  -11.2031   31.9256 C   0  0  2  0  0  0  0  0  0  0  0  0
  -10.3574  -10.2960   31.8662 C   0  0  0  0  0  0  0  0  0  0  0  0
   -9.6487  -10.5708   30.8030 O   0  0  0  0  0  0  0  0  0  0  0  0
  -12.2502  -11.2300   33.2176 C   0  0  0  0  0  0  0  0  0  0  0  0
  -11.3714  -11.5066   34.3785 C   0  0  0  0  0  0  0  0  0  0  0  0
  -10.0720  -11.9871   34.1754 C   0  0  0  0  0  0  0  0  0  0  0  0
  -11.7525  -11.3418   35.6902 C   0  0  0  0  0  0  0  0  0  0  0  0
   -9.2186  -12.2800   35.2056 C   0  0  0  0  0  0  0  0  0  0  0  0
  -10.9030  -11.6335   36.7304 C   0  0  0  0  0  0  0  0  0  0  0  0
   -9.6170  -12.1092   36.5087 C   0  0  0  0  0  0  0  0  0  0  0  0
   -8.7590  -12.4032   37.5407 O   0  0  0  0  0  0  0  0  0  0  0  0
   -9.8830   -9.2784   32.6504 N   0  0  0  0  0  0  0  0  0  0  0  0
  -10.1579   -7.8842   32.8427 C   0  0  2  0  0  0  0  0  0  0  0  0
  -10.0855   -7.6044   34.3082 C   0  0  0  0  0  0  0  0  0  0  0  0
  -10.3065   -8.5723   35.0834 O   0  0  0  0  0  0  0  0  0  0  0  0
  -11.2488   -7.2336   32.1203 C   0  0  0  0  0  0  0  0  0  0  0  0
  -12.5765   -7.0407   32.7239 C   0  0  0  0  0  0  0  0  0  0  0  0
  -12.8216   -5.7781   33.4809 C   0  0  0  0  0  0  0  0  0  0  0  0
  -14.0084   -5.8352   34.3996 C   0  0  0  0  0  0  0  0  0  0  0  0
  -14.2078   -4.4954   34.9385 N   0  0  0  0  0  4  0  0  0  0  0  0
   -9.7930   -6.3600   34.8840 N   0  0  0  0  0  0  0  0  0  0  0  0
   -8.7514   -5.4382   34.4364 C   0  0  2  0  0  0  0  0  0  0  0  0
   -7.4525   -5.8081   35.0321 C   0  0  0  0  0  0  0  0  0  0  0  0
   -7.3796   -5.5858   36.3012 O   0  0  0  0  0  0  0  0  0  0  0  0
   -9.1296   -4.0655   35.0093 C   0  0  0  0  0  0  0  0  0  0  0  0
   -8.1964   -3.6395   35.9404 O   0  0  0  0  0  0  0  0  0  0  0  0
   -6.3223   -6.3546   34.4227 N   0  0  0  0  0  0  0  0  0  0  0  0
   -5.4143   -5.7063   33.4680 C   0  0  2  0  0  0  0  0  0  0  0  0
   -4.1153   -5.4782   34.1011 C   0  0  0  0  0  0  0  0  0  0  0  0
   -4.1587   -4.8181   35.2106 O   0  0  0  0  0  0  0  0  0  0  0  0
   -6.0532   -4.6704   32.6330 C   0  0  0  0  0  0  0  0  0  0  0  0
   -5.5158   -4.3791   31.2946 C   0  0  0  0  0  0  0  0  0  0  0  0
   -4.5720   -5.2905   30.6251 C   0  0  0  0  0  0  0  0  0  0  0  0
   -4.3500   -6.6396   31.2326 C   0  0  0  0  0  0  0  0  0  0  0  0
   -3.4890   -7.5445   30.5817 N   0  0  0  0  0  4  0  0  0  0  0  0
   -2.8490   -5.9132   33.6150 N   0  0  0  0  0  0  0  0  0  0  0  0
   -2.5924   -7.1760   32.9386 C   0  0  2  0  0  0  0  0  0  0  0  0
   -1.8322   -8.0017   33.9266 C   0  0  0  0  0  0  0  0  0  0  0  0
   -2.5001   -8.2161   35.0114 O   0  0  0  0  0  0  0  0  0  0  0  0
   -1.8038   -6.7290   31.7548 C   0  0  0  0  0  0  0  0  0  0  0  0
   -1.1158   -5.4392   32.2181 C   0  0  0  0  0  0  0  0  0  0  0  0
   -1.5324   -5.2802   33.6674 C   0  0  0  0  0  0  0  0  0  0  0  0
   -0.5620   -8.5369   33.8253 N   0  0  0  0  0  0  0  0  0  0  0  0
   -0.0361   -9.4464   32.8057 C   0  0  2  0  0  0  0  0  0  0  0  0
   -1.0815  -10.1370   32.0351 C   0  0  0  0  0  0  0  0  0  0  0  0
   -2.1000  -10.4760   32.7786 O   0  0  0  0  0  0  0  0  0  0  0  0
    0.6530  -10.4887   33.6596 C   0  0  0  0  0  0  0  0  0  0  0  0
    1.1298   -9.7305   34.8422 C   0  0  0  0  0  0  0  0  0  0  0  0
    0.6088   -8.3392   34.7097 C   0  0  0  0  0  0  0  0  0  0  0  0
   -1.1850  -10.4834   30.6994 N   0  0  0  0  0  0  0  0  0  0  0  0
   -0.5520  -11.3623   29.8091 C   0  0  2  0  0  0  0  0  0  0  0  0
   -1.3907  -12.4473   29.2379 C   0  0  0  0  0  0  0  0  0  0  0  0
   -1.5177  -12.3848   27.9445 O   0  0  0  0  0  0  0  0  0  0  0  0
    0.7882  -11.9322   30.0392 C   0  0  2  0  0  0  0  0  0  0  0  0
    1.8500  -10.9707   30.4969 C   0  0  0  0  0  0  0  0  0  0  0  0
    1.3605  -12.4701   28.6916 C   0  0  0  0  0  0  0  0  0  0  0  0
    1.5172   -9.5922   29.9173 C   0  0  0  0  0  0  0  0  0  0  0  0
   -2.0525  -13.5011   29.8375 N   0  0  0  0  0  0  0  0  0  0  0  0
   -2.2410  -13.8772   31.1961 C   0  0  2  0  0  0  0  0  0  0  0  0
   -1.3235  -14.8809   31.7408 C   0  0  0  0  0  0  0  0  0  0  0  0
   -0.4389  -14.3842   32.5683 O   0  0  0  0  0  0  0  0  0  0  0  0
   -3.7119  -14.3362   31.3638 C   0  0  0  0  0  0  0  0  0  0  0  0
   -4.8538  -12.9670   31.1452 S   0  0  0  0  0  0  0  0  0  0  0  0
   -1.2412  -16.2667   31.5226 N   0  0  0  0  0  0  0  0  0  0  0  0
   -1.4755  -17.0257   30.3200 C   0  0  2  0  0  0  0  0  0  0  0  0
   -1.2916  -18.4844   30.6475 C   0  0  0  0  0  0  0  0  0  0  0  0
   -0.9408  -18.7790   31.8494 O   0  0  0  0  0  0  0  0  0  0  0  0
   -0.5367  -16.6835   29.2104 C   0  0  0  0  0  0  0  0  0  0  0  0
   -0.0995  -15.2606   29.1438 C   0  0  0  0  0  0  0  0  0  0  0  0
    0.3219  -14.7259   27.9389 C   0  0  0  0  0  0  0  0  0  0  0  0
   -0.0884  -14.4515   30.2501 C   0  0  0  0  0  0  0  0  0  0  0  0
    0.7359  -13.4254   27.8708 C   0  0  0  0  0  0  0  0  0  0  0  0
    0.3344  -13.1443   30.1522 C   0  0  0  0  0  0  0  0  0  0  0  0
    0.7584  -12.5912   28.9643 C   0  0  0  0  0  0  0  0  0  0  0  0
   -1.4653  -19.5708   29.7749 N   0  0  0  0  0  0  0  0  0  0  0  0
   -2.5903  -19.6551   28.8191 C   0  0  2  0  0  0  0  0  0  0  0  0
   -3.5481  -20.7266   29.1932 C   0  0  0  0  0  0  0  0  0  0  0  0
   -3.0275  -21.8985   29.2828 O   0  0  0  0  0  0  0  0  0  0  0  0
   -1.7945  -20.0977   27.5657 C   0  0  0  0  0  0  0  0  0  0  0  0
   -0.7944  -21.0750   28.1142 C   0  0  0  0  0  0  0  0  0  0  0  0
   -0.7142  -20.7744   29.5720 C   0  0  0  0  0  0  0  0  0  0  0  0
   -4.9184  -20.5943   29.4519 N   0  0  0  0  0  0  0  0  0  0  0  0
   -5.9563  -20.0427   28.6250 C   0  0  2  0  0  0  0  0  0  0  0  0
   -7.2625  -20.7441   28.9730 C   0  0  0  0  0  0  0  0  0  0  0  0
   -7.2099  -22.0003   28.9670 O   0  0  0  0  0  0  0  0  0  0  0  0
   -5.8058  -20.1944   27.1612 C   0  0  0  0  0  0  0  0  0  0  0  0
   -6.8763  -19.5005   26.4245 C   0  0  0  0  0  0  0  0  0  0  0  0
   -7.1207  -18.1267   26.5989 O   0  0  0  0  0  0  0  0  0  0  0  0
   -7.6085  -20.1165   25.6121 O   0  0  0  0  0  0  0  0  0  0  0  0
   -9.7310  -19.5532   29.3258 O   0  0  0  0  0  0  0  0  0  0  0  0
   -8.5091  -12.3373   27.4953 H   0  0  0  0  0  0  0  0  0  0  0  0
  1  2  1  0
  1106  1  0
  1112  1  0
  2  3  1  0
  2112  1  6
  3  4  2  0
  3  5  1  0
  5  6  1  0
  6  7  1  0
  6  9  1  6
  7  8  2  0
  7 16  1  0
  9 10  1  0
 10 11  1  0
 11 12  1  0
 12 13  1  0
 13 14  1  0
 13 15  2  0
 17 16  1  6
 17 18  1  0
 17 20  1  0
 18 19  2  0
 18 22  1  0
 20 21  1  0
 21 85  1  0
 22 23  1  0
 23 24  1  0
 23 26  1  1
 24 25  2  0
 24 34  1  0
 26 27  1  0
 27 28  2  0
 27 29  1  0
 28 30  1  0
 29 31  2  0
 30 32  2  0
 31 32  1  0
 32 33  1  0
 34 35  1  0
 35 36  1  0
 35 38  1  1
 36 37  2  0
 36 43  1  0
 38 39  1  0
 39 40  1  0
 40 41  1  0
 41 42  1  0
 43 44  1  0
 44 45  1  0
 44 47  1  1
 45 46  2  0
 45 49  1  0
 47 48  1  0
 49 50  1  0
 50 51  1  0
 50 53  1  1
 51 52  2  0
 51 58  1  0
 53 54  1  0
 54 55  1  0
 55 56  1  0
 56 57  1  0
 58 59  1  0
 58 64  1  0
 59 60  1  0
 59 62  1  6
 60 61  2  0
 60 65  1  0
 62 63  1  0
 63 64  1  0
 65 66  1  0
 65 71  1  0
 66 67  1  0
 66 69  1  1
 67 68  2  0
 67 72  1  0
 69 70  1  0
 70 71  1  0
 73 72  1  1
 73 74  1  0
 73 76  1  0
 74 75  2  0
 74 80  1  0
 76 77  1  0
 76 78  1  6
 77 79  1  0
 81 80  1  6
 81 82  1  0
 81 84  1  0
 82 83  2  0
 82 86  1  0
 84 85  1  0
 86 87  1  0
 87 88  1  0
 87 90  1  6
 88 89  2  0
 88 97  1  0
 90 91  1  0
 91 92  2  0
 91 93  1  0
 92 94  1  0
 93 95  2  0
 94 96  2  0
 95 96  1  0
 97 98  1  0
 97103  1  0
 98 99  1  0
 98101  1  6
 99100  2  0
 99104  1  0
101102  1  0
102103  1  0
104105  1  0
105106  1  0
105108  1  6
106107  2  0
108109  1  0
109110  1  0
109111  2  0
 15113  1  0
M  CHG  2  42   1  57   1
M  END
$$$$
