
     RDKit          3D

113120  0  0  0  0  0  0  0  0999 V2000
    0.1619   -9.5565   38.1711 N   0  0  0  0  0  0  0  0  0  0  0  0
   -1.0009   -9.3952   37.5120 C   0  0  2  0  0  0  0  0  0  0  0  0
   -1.0047   -8.4789   36.3427 C   0  0  0  0  0  0  0  0  0  0  0  0
    0.0492   -8.5348   35.6131 O   0  0  0  0  0  0  0  0  0  0  0  0
   -2.0707   -7.6128   36.0434 N   0  0  0  0  0  0  0  0  0  0  0  0
   -3.4793   -7.9453   36.1337 C   0  0  2  0  0  0  0  0  0  0  0  0
   -4.3329   -7.2069   35.1892 C   0  0  0  0  0  0  0  0  0  0  0  0
   -4.3929   -5.9430   35.3230 O   0  0  0  0  0  0  0  0  0  0  0  0
   -3.9287   -7.8140   37.5651 C   0  0  0  0  0  0  0  0  0  0  0  0
   -3.0345   -6.9221   38.3607 C   0  0  0  0  0  0  0  0  0  0  0  0
   -3.2986   -5.4654   38.0106 C   0  0  0  0  0  0  0  0  0  0  0  0
   -2.3022   -5.0220   37.0744 N   0  0  0  0  0  0  0  0  0  0  0  0
   -2.4691   -3.8134   36.3709 C   0  0  0  0  0  0  0  0  0  0  0  0
   -2.2413   -3.7181   34.9885 N   0  0  0  0  0  0  0  0  0  0  0  0
   -2.8474   -2.7418   37.0328 N   0  0  0  0  0  0  0  0  0  0  0  0
   -5.0963   -7.7489   34.1414 N   0  0  0  0  0  0  0  0  0  0  0  0
   -5.7790   -9.0331   34.1497 C   0  0  2  0  0  0  0  0  0  0  0  0
   -6.5476   -9.2135   35.4111 C   0  0  0  0  0  0  0  0  0  0  0  0
   -6.0453  -10.1275   36.1666 O   0  0  0  0  0  0  0  0  0  0  0  0
   -4.7305  -10.0993   33.9262 C   0  0  0  0  0  0  0  0  0  0  0  0
   -5.0935  -11.1404   32.4603 S   0  0  0  0  0  0  0  0  0  0  0  0
   -7.6790   -8.5482   35.8444 N   0  0  0  0  0  0  0  0  0  0  0  0
   -8.9957   -8.4081   35.2426 C   0  0  2  0  0  0  0  0  0  0  0  0
   -9.3203   -9.5748   34.3985 C   0  0  0  0  0  0  0  0  0  0  0  0
   -8.8096  -10.6518   34.9346 O   0  0  0  0  0  0  0  0  0  0  0  0
   -9.2340   -7.0802   34.6242 C   0  0  0  0  0  0  0  0  0  0  0  0
   -9.2047   -7.1125   33.1428 C   0  0  0  0  0  0  0  0  0  0  0  0
   -9.1532   -8.3390   32.4693 C   0  0  0  0  0  0  0  0  0  0  0  0
   -9.2037   -5.9900   32.3473 C   0  0  0  0  0  0  0  0  0  0  0  0
   -9.1045   -8.4354   31.1040 C   0  0  0  0  0  0  0  0  0  0  0  0
   -9.1548   -6.0772   30.9766 C   0  0  0  0  0  0  0  0  0  0  0  0
   -9.1042   -7.3036   30.3264 C   0  0  0  0  0  0  0  0  0  0  0  0
   -9.0559   -7.4027   28.9569 O   0  0  0  0  0  0  0  0  0  0  0  0
  -10.0069   -9.7613   33.2283 N   0  0  0  0  0  0  0  0  0  0  0  0
  -11.3764   -9.8865   32.8221 C   0  0  2  0  0  0  0  0  0  0  0  0
  -11.5425   -9.1309   31.5442 C   0  0  0  0  0  0  0  0  0  0  0  0
  -10.7332   -8.1895   31.3311 O   0  0  0  0  0  0  0  0  0  0  0  0
  -12.4578   -9.7443   33.7945 C   0  0  0  0  0  0  0  0  0  0  0  0
  -12.2272   -9.1992   35.1413 C   0  0  0  0  0  0  0  0  0  0  0  0
  -11.4401   -7.9365   35.2571 C   0  0  0  0  0  0  0  0  0  0  0  0
  -12.2487   -6.7484   35.6937 C   0  0  0  0  0  0  0  0  0  0  0  0
  -11.3246   -5.6366   35.8807 N   0  0  0  0  0  4  0  0  0  0  0  0
  -12.5197   -9.3850   30.5716 N   0  0  0  0  0  0  0  0  0  0  0  0
  -12.9243  -10.7059   30.0955 C   0  0  2  0  0  0  0  0  0  0  0  0
  -12.0124  -11.1652   29.0296 C   0  0  0  0  0  0  0  0  0  0  0  0
  -12.1339  -10.5119   27.9233 O   0  0  0  0  0  0  0  0  0  0  0  0
  -14.3041  -10.5164   29.4507 C   0  0  0  0  0  0  0  0  0  0  0  0
  -14.1901   -9.9865   28.1757 O   0  0  0  0  0  0  0  0  0  0  0  0
  -11.0590  -12.1838   29.0578 N   0  0  0  0  0  0  0  0  0  0  0  0
  -11.2929  -13.6314   29.1337 C   0  0  2  0  0  0  0  0  0  0  0  0
  -10.9198  -14.2576   27.8653 C   0  0  0  0  0  0  0  0  0  0  0  0
  -11.4924  -13.7565   26.8215 O   0  0  0  0  0  0  0  0  0  0  0  0
  -12.5334  -14.0080   29.8394 C   0  0  0  0  0  0  0  0  0  0  0  0
  -13.1903  -13.0364   30.7279 C   0  0  0  0  0  0  0  0  0  0  0  0
  -12.7249  -11.6425   30.8284 C   0  0  0  0  0  0  0  0  0  0  0  0
  -11.3173  -11.3424   30.4194 C   0  0  0  0  0  0  0  0  0  0  0  0
  -10.6632  -10.2366   30.9967 N   0  0  0  0  0  4  0  0  0  0  0  0
  -10.0042  -15.3348   27.6904 N   0  0  0  0  0  0  0  0  0  0  0  0
   -8.7796  -15.5342   28.4509 C   0  0  2  0  0  0  0  0  0  0  0  0
   -7.6713  -15.2187   27.4980 C   0  0  0  0  0  0  0  0  0  0  0  0
   -7.7218  -14.0029   27.0641 O   0  0  0  0  0  0  0  0  0  0  0  0
   -8.8913  -16.9718   28.8305 C   0  0  0  0  0  0  0  0  0  0  0  0
   -9.7447  -17.5957   27.7197 C   0  0  0  0  0  0  0  0  0  0  0  0
  -10.0114  -16.4574   26.7541 C   0  0  0  0  0  0  0  0  0  0  0  0
   -6.6489  -16.0313   27.0460 N   0  0  0  0  0  0  0  0  0  0  0  0
   -5.6414  -16.7480   27.8300 C   0  0  2  0  0  0  0  0  0  0  0  0
   -5.4935  -16.2431   29.2036 C   0  0  0  0  0  0  0  0  0  0  0  0
   -5.5943  -14.9427   29.2649 O   0  0  0  0  0  0  0  0  0  0  0  0
   -4.3729  -16.3944   27.0841 C   0  0  0  0  0  0  0  0  0  0  0  0
   -4.8091  -16.2566   25.6729 C   0  0  0  0  0  0  0  0  0  0  0  0
   -6.2935  -16.4012   25.6570 C   0  0  0  0  0  0  0  0  0  0  0  0
   -5.2757  -16.8756   30.4149 N   0  0  0  0  0  0  0  0  0  0  0  0
   -4.2451  -17.6005   31.0300 C   0  0  2  0  0  0  0  0  0  0  0  0
   -3.6451  -16.9983   32.2483 C   0  0  0  0  0  0  0  0  0  0  0  0
   -3.8050  -17.7175   33.3208 O   0  0  0  0  0  0  0  0  0  0  0  0
   -3.1488  -18.2501   30.2883 C   0  0  2  0  0  0  0  0  0  0  0  0
   -3.1474  -18.0543   28.7973 C   0  0  0  0  0  0  0  0  0  0  0  0
   -3.2684  -19.7980   30.4379 C   0  0  0  0  0  0  0  0  0  0  0  0
   -4.2732  -17.0749   28.4507 C   0  0  0  0  0  0  0  0  0  0  0  0
   -2.9533  -15.8177   32.4371 N   0  0  0  0  0  0  0  0  0  0  0  0
   -2.6424  -14.7305   31.5744 C   0  0  2  0  0  0  0  0  0  0  0  0
   -1.3230  -14.7439   30.9381 C   0  0  0  0  0  0  0  0  0  0  0  0
   -1.3622  -15.0359   29.6625 O   0  0  0  0  0  0  0  0  0  0  0  0
   -2.8500  -13.4166   32.3699 C   0  0  0  0  0  0  0  0  0  0  0  0
   -4.5830  -13.1571   32.7643 S   0  0  0  0  0  0  0  0  0  0  0  0
   -0.0443  -14.4976   31.4665 N   0  0  0  0  0  0  0  0  0  0  0  0
    0.4954  -14.8231   32.7626 C   0  0  2  0  0  0  0  0  0  0  0  0
    1.9041  -14.2935   32.8261 C   0  0  0  0  0  0  0  0  0  0  0  0
    2.3658  -13.7188   31.7721 O   0  0  0  0  0  0  0  0  0  0  0  0
    0.5453  -16.2908   33.0327 C   0  0  0  0  0  0  0  0  0  0  0  0
   -0.7717  -16.9838   33.1066 C   0  0  0  0  0  0  0  0  0  0  0  0
   -1.8752  -16.3131   33.6043 C   0  0  0  0  0  0  0  0  0  0  0  0
   -0.9319  -18.2842   32.7040 C   0  0  0  0  0  0  0  0  0  0  0  0
   -3.0843  -16.9445   33.6868 C   0  0  0  0  0  0  0  0  0  0  0  0
   -2.1625  -18.8956   32.7990 C   0  0  0  0  0  0  0  0  0  0  0  0
   -3.2739  -18.2483   33.2913 C   0  0  0  0  0  0  0  0  0  0  0  0
    2.7780  -14.3572   33.9234 N   0  0  0  0  0  0  0  0  0  0  0  0
    2.3371  -14.1002   35.3111 C   0  0  2  0  0  0  0  0  0  0  0  0
    2.9100  -12.8375   35.8431 C   0  0  0  0  0  0  0  0  0  0  0  0
    4.1944  -12.7884   35.8296 O   0  0  0  0  0  0  0  0  0  0  0  0
    3.0293  -15.3035   35.9989 C   0  0  0  0  0  0  0  0  0  0  0  0
    4.3603  -15.3827   35.3073 C   0  0  0  0  0  0  0  0  0  0  0  0
    4.1785  -14.6440   34.0254 C   0  0  0  0  0  0  0  0  0  0  0  0
    2.2147  -11.7282   36.3415 N   0  0  0  0  0  0  0  0  0  0  0  0
    1.2415  -11.6571   37.3965 C   0  0  2  0  0  0  0  0  0  0  0  0
    1.3301  -10.2753   38.0306 C   0  0  0  0  0  0  0  0  0  0  0  0
    2.4871   -9.9188   38.3699 O   0  0  0  0  0  0  0  0  0  0  0  0
    1.3871  -12.6138   38.5153 C   0  0  0  0  0  0  0  0  0  0  0  0
    0.4458  -12.3246   39.6110 C   0  0  0  0  0  0  0  0  0  0  0  0
   -0.5146  -11.3026   39.5078 O   0  0  0  0  0  0  0  0  0  0  0  0
    0.4704  -12.9852   40.6780 O   0  0  0  0  0  0  0  0  0  0  0  0
   -0.7872   -8.6483   38.7423 O   0  0  0  0  0  0  0  0  0  0  0  0
   -2.3479   -1.8447   36.9587 H   0  0  0  0  0  0  0  0  0  0  0  0
  1  2  1  0
  1106  1  0
  1112  1  0
  2  3  1  0
  2112  1  1
  3  4  2  0
  3  5  1  0
  5  6  1  0
  6  7  1  0
  6  9  1  1
  7  8  2  0
  7 16  1  0
  9 10  1  0
 10 11  1  0
 11 12  1  0
 12 13  1  0
 13 14  1  0
 13 15  2  0
 17 16  1  1
 17 18  1  0
 17 20  1  0
 18 19  2  0
 18 22  1  0
 20 21  1  0
 21 85  1  0
 22 23  1  0
 23 24  1  0
 23 26  1  6
 24 25  2  0
 24 34  1  0
 26 27  1  0
 27 28  2  0
 27 29  1  0
 28 30  1  0
 29 31  2  0
 30 32  2  0
 31 32  1  0
 32 33  1  0
 34 35  1  0
 35 36  1  0
 35 38  1  1
 36 37  2  0
 36 43  1  0
 38 39  1  0
 39 40  1  0
 40 41  1  0
 41 42  1  0
 43 44  1  0
 44 45  1  0
 44 47  1  6
 45 46  2  0
 45 49  1  0
 47 48  1  0
 49 50  1  0
 50 51  1  0
 50 53  1  6
 51 52  2  0
 51 58  1  0
 53 54  1  0
 54 55  1  0
 55 56  1  0
 56 57  1  0
 58 59  1  0
 58 64  1  0
 59 60  1  0
 59 62  1  6
 60 61  2  0
 60 65  1  0
 62 63  1  0
 63 64  1  0
 65 66  1  0
 65 71  1  0
 66 67  1  0
 66 69  1  6
 67 68  2  0
 67 72  1  0
 69 70  1  0
 70 71  1  0
 73 72  1  6
 73 74  1  0
 73 76  1  0
 74 75  2  0
 74 80  1  0
 76 77  1  0
 76 78  1  6
 77 79  1  0
 81 80  1  1
 81 82  1  0
 81 84  1  0
 82 83  2  0
 82 86  1  0
 84 85  1  0
 86 87  1  0
 87 88  1  0
 87 90  1  6
 88 89  2  0
 88 97  1  0
 90 91  1  0
 91 92  2  0
 91 93  1  0
 92 94  1  0
 93 95  2  0
 94 96  2  0
 95 96  1  0
 97 98  1  0
 97103  1  0
 98 99  1  0
 98101  1  1
 99100  2  0
 99104  1  0
101102  1  0
102103  1  0
104105  1  0
105106  1  0
105108  1  1
106107  2  0
108109  1  0
109110  1  0
109111  2  0
 15113  1  0
M  CHG  2  42   1  57   1
M  END
$$$$
