
     RDKit          3D

113120  0  0  0  0  0  0  0  0999 V2000
  -12.7522  -13.0651   34.3761 N   0  0  0  0  0  0  0  0  0  0  0  0
  -11.6592  -12.3027   34.1854 C   0  0  2  0  0  0  0  0  0  0  0  0
  -10.6919  -12.1983   35.3080 C   0  0  0  0  0  0  0  0  0  0  0  0
  -10.5080  -13.2869   35.9615 O   0  0  0  0  0  0  0  0  0  0  0  0
  -10.0212  -11.0088   35.6416 N   0  0  0  0  0  0  0  0  0  0  0  0
   -9.4448  -10.0713   34.6973 C   0  0  2  0  0  0  0  0  0  0  0  0
   -8.2835   -9.3318   35.2171 C   0  0  0  0  0  0  0  0  0  0  0  0
   -8.4809   -8.5579   36.2076 O   0  0  0  0  0  0  0  0  0  0  0  0
  -10.5302   -9.1722   34.1666 C   0  0  0  0  0  0  0  0  0  0  0  0
  -10.0617   -7.7675   33.9789 C   0  0  0  0  0  0  0  0  0  0  0  0
  -11.1932   -6.7928   34.2687 C   0  0  0  0  0  0  0  0  0  0  0  0
  -11.7384   -7.0827   35.5666 N   0  0  0  0  0  0  0  0  0  0  0  0
  -12.6703   -6.2106   36.1621 C   0  0  0  0  0  0  0  0  0  0  0  0
  -13.1480   -6.4089   37.4677 N   0  0  0  0  0  0  0  0  0  0  0  0
  -13.1070   -5.1811   35.4701 N   0  0  0  0  0  0  0  0  0  0  0  0
   -6.9641   -9.3880   34.7371 N   0  0  0  0  0  0  0  0  0  0  0  0
   -6.5600   -9.5521   33.3496 C   0  0  2  0  0  0  0  0  0  0  0  0
   -7.3255   -8.6323   32.4651 C   0  0  0  0  0  0  0  0  0  0  0  0
   -8.1469   -9.2593   31.6967 O   0  0  0  0  0  0  0  0  0  0  0  0
   -6.7406  -11.0120   33.0000 C   0  0  0  0  0  0  0  0  0  0  0  0
   -5.1860  -11.7873   32.4111 S   0  0  0  0  0  0  0  0  0  0  0  0
   -7.2614   -7.2543   32.3772 N   0  0  0  0  0  0  0  0  0  0  0  0
   -6.1489   -6.3654   32.0816 C   0  0  2  0  0  0  0  0  0  0  0  0
   -5.1550   -7.0290   31.2151 C   0  0  0  0  0  0  0  0  0  0  0  0
   -5.7713   -7.8243   30.3809 O   0  0  0  0  0  0  0  0  0  0  0  0
   -5.6018   -5.6723   33.2745 C   0  0  0  0  0  0  0  0  0  0  0  0
   -5.5403   -4.2000   33.1169 C   0  0  0  0  0  0  0  0  0  0  0  0
   -4.4230   -3.4919   33.5760 C   0  0  0  0  0  0  0  0  0  0  0  0
   -6.5407   -3.4428   32.5523 C   0  0  0  0  0  0  0  0  0  0  0  0
   -4.3144   -2.1303   33.4776 C   0  0  0  0  0  0  0  0  0  0  0  0
   -6.4404   -2.0760   32.4496 C   0  0  0  0  0  0  0  0  0  0  0  0
   -5.3235   -1.3912   32.9109 C   0  0  0  0  0  0  0  0  0  0  0  0
   -5.2122   -0.0253   32.8127 O   0  0  0  0  0  0  0  0  0  0  0  0
   -3.7904   -6.9937   31.1049 N   0  0  0  0  0  0  0  0  0  0  0  0
   -2.8065   -6.1414   30.5034 C   0  0  2  0  0  0  0  0  0  0  0  0
   -1.6567   -6.0351   31.4511 C   0  0  0  0  0  0  0  0  0  0  0  0
   -1.9064   -6.2227   32.6713 O   0  0  0  0  0  0  0  0  0  0  0  0
   -3.2017   -4.9033   29.8355 C   0  0  0  0  0  0  0  0  0  0  0  0
   -3.2446   -3.6153   30.5451 C   0  0  0  0  0  0  0  0  0  0  0  0
   -2.0023   -3.1565   31.2331 C   0  0  0  0  0  0  0  0  0  0  0  0
   -2.0092   -3.3739   32.7193 C   0  0  0  0  0  0  0  0  0  0  0  0
   -1.0087   -2.4837   33.2952 N   0  0  0  0  0  4  0  0  0  0  0  0
   -0.3327   -5.7456   31.0923 N   0  0  0  0  0  0  0  0  0  0  0  0
    0.3818   -6.3071   29.9480 C   0  0  2  0  0  0  0  0  0  0  0  0
    0.9623   -7.6172   30.3019 C   0  0  0  0  0  0  0  0  0  0  0  0
    1.9479   -7.5428   31.1318 O   0  0  0  0  0  0  0  0  0  0  0  0
    1.5568   -5.3572   29.6782 C   0  0  0  0  0  0  0  0  0  0  0  0
    2.6310   -5.6457   30.5042 O   0  0  0  0  0  0  0  0  0  0  0  0
    0.5959   -8.8934   29.8724 N   0  0  0  0  0  0  0  0  0  0  0  0
    0.7531   -9.4692   28.5308 C   0  0  2  0  0  0  0  0  0  0  0  0
    1.7684  -10.5219   28.5627 C   0  0  0  0  0  0  0  0  0  0  0  0
    2.9124  -10.1607   29.0415 O   0  0  0  0  0  0  0  0  0  0  0  0
    0.7097   -8.4782   27.4378 C   0  0  0  0  0  0  0  0  0  0  0  0
    0.1136   -8.8456   26.1438 C   0  0  0  0  0  0  0  0  0  0  0  0
   -1.1064   -9.6667   26.0597 C   0  0  0  0  0  0  0  0  0  0  0  0
   -1.8589   -9.9356   27.3245 C   0  0  0  0  0  0  0  0  0  0  0  0
   -3.1240  -10.5496   27.2450 N   0  0  0  0  0  4  0  0  0  0  0  0
    1.6048  -11.8689   28.1289 N   0  0  0  0  0  0  0  0  0  0  0  0
    0.3969  -12.6655   28.2847 C   0  0  2  0  0  0  0  0  0  0  0  0
    0.7246  -13.6706   29.3422 C   0  0  0  0  0  0  0  0  0  0  0  0
    1.0328  -13.1210   30.4699 O   0  0  0  0  0  0  0  0  0  0  0  0
    0.2279  -13.2280   26.9142 C   0  0  0  0  0  0  0  0  0  0  0  0
    1.6505  -13.2802   26.3440 C   0  0  0  0  0  0  0  0  0  0  0  0
    2.5353  -12.7846   27.4713 C   0  0  0  0  0  0  0  0  0  0  0  0
    0.7382  -15.0503   29.2628 N   0  0  0  0  0  0  0  0  0  0  0  0
   -0.3507  -15.9509   28.8799 C   0  0  2  0  0  0  0  0  0  0  0  0
   -1.6824  -15.3302   28.9505 C   0  0  0  0  0  0  0  0  0  0  0  0
   -1.8000  -14.5295   29.9752 O   0  0  0  0  0  0  0  0  0  0  0  0
   -0.2821  -16.9894   29.9787 C   0  0  0  0  0  0  0  0  0  0  0  0
    1.1585  -17.0532   30.3272 C   0  0  0  0  0  0  0  0  0  0  0  0
    1.8475  -15.9915   29.5381 C   0  0  0  0  0  0  0  0  0  0  0  0
   -2.8062  -15.4323   28.1497 N   0  0  0  0  0  0  0  0  0  0  0  0
   -3.7543  -16.4119   27.8219 C   0  0  2  0  0  0  0  0  0  0  0  0
   -5.1576  -16.1397   28.2263 C   0  0  0  0  0  0  0  0  0  0  0  0
   -5.9819  -16.0441   27.2240 O   0  0  0  0  0  0  0  0  0  0  0  0
   -3.5292  -17.8580   28.0011 C   0  0  2  0  0  0  0  0  0  0  0  0
   -3.1631  -18.6321   26.7649 C   0  0  0  0  0  0  0  0  0  0  0  0
   -4.8574  -18.5361   28.4581 C   0  0  0  0  0  0  0  0  0  0  0  0
   -2.8904  -17.6250   25.6432 C   0  0  0  0  0  0  0  0  0  0  0  0
   -5.7328  -15.9724   29.4709 N   0  0  0  0  0  0  0  0  0  0  0  0
   -5.1934  -15.9152   30.7856 C   0  0  2  0  0  0  0  0  0  0  0  0
   -5.2147  -17.1544   31.5667 C   0  0  0  0  0  0  0  0  0  0  0  0
   -4.0365  -17.7110   31.6937 O   0  0  0  0  0  0  0  0  0  0  0  0
   -5.9185  -14.7779   31.5491 C   0  0  0  0  0  0  0  0  0  0  0  0
   -5.5174  -13.1681   30.8607 S   0  0  0  0  0  0  0  0  0  0  0  0
   -6.2769  -17.8301   32.1911 N   0  0  0  0  0  0  0  0  0  0  0  0
   -7.6456  -17.9863   31.7675 C   0  0  2  0  0  0  0  0  0  0  0  0
   -8.3753  -18.7656   32.8300 C   0  0  0  0  0  0  0  0  0  0  0  0
   -7.6902  -19.1659   33.8424 O   0  0  0  0  0  0  0  0  0  0  0  0
   -7.7866  -18.7265   30.4784 C   0  0  0  0  0  0  0  0  0  0  0  0
   -7.7355  -20.2127   30.5728 C   0  0  0  0  0  0  0  0  0  0  0  0
   -7.4717  -20.8163   31.7899 C   0  0  0  0  0  0  0  0  0  0  0  0
   -7.9322  -21.0172   29.4806 C   0  0  0  0  0  0  0  0  0  0  0  0
   -7.4111  -22.1782   31.8835 C   0  0  0  0  0  0  0  0  0  0  0  0
   -7.8649  -22.3873   29.6042 C   0  0  0  0  0  0  0  0  0  0  0  0
   -7.6033  -23.0096   30.8046 C   0  0  0  0  0  0  0  0  0  0  0  0
   -9.7378  -19.1050   32.8379 N   0  0  0  0  0  0  0  0  0  0  0  0
  -10.7985  -18.1592   32.4296 C   0  0  2  0  0  0  0  0  0  0  0  0
  -11.6332  -17.7403   33.5843 C   0  0  0  0  0  0  0  0  0  0  0  0
  -12.1988  -18.7092   34.2116 O   0  0  0  0  0  0  0  0  0  0  0  0
  -11.6205  -19.1118   31.5256 C   0  0  0  0  0  0  0  0  0  0  0  0
  -11.5923  -20.4140   32.2736 C   0  0  0  0  0  0  0  0  0  0  0  0
  -10.4304  -20.3060   33.2011 C   0  0  0  0  0  0  0  0  0  0  0  0
  -11.8587  -16.4372   34.0461 N   0  0  0  0  0  0  0  0  0  0  0  0
  -12.3699  -15.2931   33.3425 C   0  0  2  0  0  0  0  0  0  0  0  0
  -13.0891  -14.4018   34.3464 C   0  0  0  0  0  0  0  0  0  0  0  0
  -13.9378  -14.9877   35.0658 O   0  0  0  0  0  0  0  0  0  0  0  0
  -13.3523  -15.5457   32.2658 C   0  0  0  0  0  0  0  0  0  0  0  0
  -14.0303  -14.3092   31.8400 C   0  0  0  0  0  0  0  0  0  0  0  0
  -13.5281  -13.5155   30.7934 O   0  0  0  0  0  0  0  0  0  0  0  0
  -15.0846  -13.9220   32.4005 O   0  0  0  0  0  0  0  0  0  0  0  0
  -12.9127  -11.6503   34.5322 O   0  0  0  0  0  0  0  0  0  0  0  0
  -13.0597   -4.2174   35.8288 H   0  0  0  0  0  0  0  0  0  0  0  0
  1  2  1  0
  1106  1  0
  1112  1  0
  2  3  1  0
  2112  1  1
  3  4  2  0
  3  5  1  0
  5  6  1  0
  6  7  1  0
  6  9  1  1
  7  8  2  0
  7 16  1  0
  9 10  1  0
 10 11  1  0
 11 12  1  0
 12 13  1  0
 13 14  1  0
 13 15  2  0
 17 16  1  1
 17 18  1  0
 17 20  1  0
 18 19  2  0
 18 22  1  0
 20 21  1  0
 21 85  1  0
 22 23  1  0
 23 24  1  0
 23 26  1  1
 24 25  2  0
 24 34  1  0
 26 27  1  0
 27 28  2  0
 27 29  1  0
 28 30  1  0
 29 31  2  0
 30 32  2  0
 31 32  1  0
 32 33  1  0
 34 35  1  0
 35 36  1  0
 35 38  1  1
 36 37  2  0
 36 43  1  0
 38 39  1  0
 39 40  1  0
 40 41  1  0
 41 42  1  0
 43 44  1  0
 44 45  1  0
 44 47  1  1
 45 46  2  0
 45 49  1  0
 47 48  1  0
 49 50  1  0
 50 51  1  0
 50 53  1  6
 51 52  2  0
 51 58  1  0
 53 54  1  0
 54 55  1  0
 55 56  1  0
 56 57  1  0
 58 59  1  0
 58 64  1  0
 59 60  1  0
 59 62  1  6
 60 61  2  0
 60 65  1  0
 62 63  1  0
 63 64  1  0
 65 66  1  0
 65 71  1  0
 66 67  1  0
 66 69  1  1
 67 68  2  0
 67 72  1  0
 69 70  1  0
 70 71  1  0
 73 72  1  1
 73 74  1  0
 73 76  1  0
 74 75  2  0
 74 80  1  0
 76 77  1  0
 76 78  1  6
 77 79  1  0
 81 80  1  6
 81 82  1  0
 81 84  1  0
 82 83  2  0
 82 86  1  0
 84 85  1  0
 86 87  1  0
 87 88  1  0
 87 90  1  6
 88 89  2  0
 88 97  1  0
 90 91  1  0
 91 92  2  0
 91 93  1  0
 92 94  1  0
 93 95  2  0
 94 96  2  0
 95 96  1  0
 97 98  1  0
 97103  1  0
 98 99  1  0
 98101  1  6
 99100  2  0
 99104  1  0
101102  1  0
102103  1  0
104105  1  0
105106  1  0
105108  1  6
106107  2  0
108109  1  0
109110  1  0
109111  2  0
 15113  1  0
M  CHG  2  42   1  57   1
M  END
$$$$
