
     RDKit          3D

113120  0  0  0  0  0  0  0  0999 V2000
   -0.0924   -7.5923   37.4094 N   0  0  0  0  0  0  0  0  0  0  0  0
   -1.2473   -7.6093   36.7178 C   0  0  2  0  0  0  0  0  0  0  0  0
   -1.2455   -6.9943   35.3655 C   0  0  0  0  0  0  0  0  0  0  0  0
   -0.1804   -7.2036   34.6816 O   0  0  0  0  0  0  0  0  0  0  0  0
   -2.3180   -6.2401   34.8586 N   0  0  0  0  0  0  0  0  0  0  0  0
   -3.7235   -6.5643   35.0086 C   0  0  2  0  0  0  0  0  0  0  0  0
   -4.5724   -6.0828   33.9072 C   0  0  0  0  0  0  0  0  0  0  0  0
   -4.6506   -4.8241   33.7388 O   0  0  0  0  0  0  0  0  0  0  0  0
   -4.1956   -6.1069   36.3636 C   0  0  0  0  0  0  0  0  0  0  0  0
   -4.1662   -4.6211   36.5026 C   0  0  0  0  0  0  0  0  0  0  0  0
   -3.3649   -4.2240   37.7333 C   0  0  0  0  0  0  0  0  0  0  0  0
   -2.1272   -3.6270   37.3121 N   0  0  0  0  0  0  0  0  0  0  0  0
   -1.4592   -2.7049   38.1410 C   0  0  0  0  0  0  0  0  0  0  0  0
   -0.2222   -2.9987   38.7374 N   0  0  0  0  0  0  0  0  0  0  0  0
   -2.0154   -1.5343   38.3639 N   0  0  0  0  0  0  0  0  0  0  0  0
   -5.3133   -6.8683   33.0080 N   0  0  0  0  0  0  0  0  0  0  0  0
   -5.9795   -8.1252   33.3110 C   0  0  2  0  0  0  0  0  0  0  0  0
   -6.7642   -8.0158   34.5706 C   0  0  0  0  0  0  0  0  0  0  0  0
   -6.2614   -8.7181   35.5258 O   0  0  0  0  0  0  0  0  0  0  0  0
   -4.9143   -9.1973   33.3569 C   0  0  0  0  0  0  0  0  0  0  0  0
   -5.2422  -10.5599   32.1735 S   0  0  0  0  0  0  0  0  0  0  0  0
   -7.9104   -7.2853   34.8221 N   0  0  0  0  0  0  0  0  0  0  0  0
   -9.2197   -7.3119   34.1893 C   0  0  2  0  0  0  0  0  0  0  0  0
   -9.5168   -8.6495   33.6403 C   0  0  0  0  0  0  0  0  0  0  0  0
   -9.0004   -9.5617   34.4208 O   0  0  0  0  0  0  0  0  0  0  0  0
   -9.4659   -6.1708   33.2728 C   0  0  0  0  0  0  0  0  0  0  0  0
   -8.6665   -6.2401   32.0268 C   0  0  0  0  0  0  0  0  0  0  0  0
   -8.7917   -5.2379   31.0569 C   0  0  0  0  0  0  0  0  0  0  0  0
   -7.7931   -7.2600   31.7271 C   0  0  0  0  0  0  0  0  0  0  0  0
   -8.0962   -5.2545   29.8774 C   0  0  0  0  0  0  0  0  0  0  0  0
   -7.0913   -7.2851   30.5458 C   0  0  0  0  0  0  0  0  0  0  0  0
   -7.2288   -6.2812   29.5957 C   0  0  0  0  0  0  0  0  0  0  0  0
   -6.5317   -6.2956   28.4119 O   0  0  0  0  0  0  0  0  0  0  0  0
  -10.1837   -9.1172   32.5393 N   0  0  0  0  0  0  0  0  0  0  0  0
  -11.5453   -9.3563   32.1585 C   0  0  2  0  0  0  0  0  0  0  0  0
  -11.7022   -8.9255   30.7368 C   0  0  0  0  0  0  0  0  0  0  0  0
  -10.9020   -8.0480   30.3170 O   0  0  0  0  0  0  0  0  0  0  0  0
  -12.6426   -9.0065   33.0578 C   0  0  0  0  0  0  0  0  0  0  0  0
  -12.5604   -9.2285   34.5098 C   0  0  0  0  0  0  0  0  0  0  0  0
  -11.2105   -9.1934   35.1451 C   0  0  0  0  0  0  0  0  0  0  0  0
  -11.2407   -9.1595   36.6464 C   0  0  0  0  0  0  0  0  0  0  0  0
   -9.9713   -9.6969   37.1207 N   0  0  0  0  0  4  0  0  0  0  0  0
  -12.6616   -9.4170   29.8405 N   0  0  0  0  0  0  0  0  0  0  0  0
  -13.0422  -10.8192   29.6845 C   0  0  2  0  0  0  0  0  0  0  0  0
  -12.1088  -11.5020   28.7672 C   0  0  0  0  0  0  0  0  0  0  0  0
  -12.2223  -11.1295   27.5368 O   0  0  0  0  0  0  0  0  0  0  0  0
  -14.4146  -10.8089   28.9976 C   0  0  0  0  0  0  0  0  0  0  0  0
  -14.8636  -12.0980   28.7612 O   0  0  0  0  0  0  0  0  0  0  0  0
  -11.1429  -12.4699   29.0455 N   0  0  0  0  0  0  0  0  0  0  0  0
  -11.3593  -13.8625   29.4576 C   0  0  2  0  0  0  0  0  0  0  0  0
  -10.9595  -14.7637   28.3767 C   0  0  0  0  0  0  0  0  0  0  0  0
  -11.5231  -14.5317   27.2379 O   0  0  0  0  0  0  0  0  0  0  0  0
  -12.6052  -14.0821   30.2181 C   0  0  0  0  0  0  0  0  0  0  0  0
  -13.8474  -14.4135   29.5025 C   0  0  0  0  0  0  0  0  0  0  0  0
  -13.9680  -14.2454   28.0441 C   0  0  0  0  0  0  0  0  0  0  0  0
  -12.7116  -14.2498   27.2317 C   0  0  0  0  0  0  0  0  0  0  0  0
  -12.8069  -14.1229   25.8322 N   0  0  0  0  0  4  0  0  0  0  0  0
  -10.0277  -15.8370   28.4709 N   0  0  0  0  0  0  0  0  0  0  0  0
   -8.8120  -15.8322   29.2709 C   0  0  2  0  0  0  0  0  0  0  0  0
   -7.6939  -15.7323   28.2830 C   0  0  0  0  0  0  0  0  0  0  0  0
   -7.7537  -14.6539   27.5744 O   0  0  0  0  0  0  0  0  0  0  0  0
   -8.9108  -17.1416   29.9772 C   0  0  0  0  0  0  0  0  0  0  0  0
   -9.7397  -18.0231   29.0351 C   0  0  0  0  0  0  0  0  0  0  0  0
  -10.0067  -17.1485   27.8255 C   0  0  0  0  0  0  0  0  0  0  0  0
   -6.6547  -16.6122   28.0468 N   0  0  0  0  0  0  0  0  0  0  0  0
   -5.6497  -17.1079   28.9890 C   0  0  2  0  0  0  0  0  0  0  0  0
   -5.5286  -16.2915   30.2065 C   0  0  0  0  0  0  0  0  0  0  0  0
   -5.6469  -15.0150   29.9585 O   0  0  0  0  0  0  0  0  0  0  0  0
   -4.3750  -16.9197   28.1952 C   0  0  0  0  0  0  0  0  0  0  0  0
   -4.7920  -17.1250   26.7863 C   0  0  0  0  0  0  0  0  0  0  0  0
   -6.2741  -17.2929   26.7883 C   0  0  0  0  0  0  0  0  0  0  0  0
   -5.3206  -16.6175   31.5351 N   0  0  0  0  0  0  0  0  0  0  0  0
   -4.2900  -17.1607   32.3154 C   0  0  2  0  0  0  0  0  0  0  0  0
   -3.7158  -16.2791   33.3642 C   0  0  0  0  0  0  0  0  0  0  0  0
   -3.8822  -16.7281   34.5740 O   0  0  0  0  0  0  0  0  0  0  0  0
   -3.1746  -17.9491   31.7600 C   0  0  2  0  0  0  0  0  0  0  0  0
   -2.0252  -17.1648   31.1899 C   0  0  0  0  0  0  0  0  0  0  0  0
   -3.6807  -18.7697   30.5339 C   0  0  0  0  0  0  0  0  0  0  0  0
   -2.4806  -15.7106   31.0322 C   0  0  0  0  0  0  0  0  0  0  0  0
   -3.0420  -15.0764   33.2773 N   0  0  0  0  0  0  0  0  0  0  0  0
   -2.7325  -14.2181   32.1863 C   0  0  2  0  0  0  0  0  0  0  0  0
   -1.4037  -14.3598   31.5860 C   0  0  0  0  0  0  0  0  0  0  0  0
   -1.4204  -14.9446   30.4147 O   0  0  0  0  0  0  0  0  0  0  0  0
   -2.9685  -12.7573   32.6474 C   0  0  0  0  0  0  0  0  0  0  0  0
   -4.7104  -12.4398   32.9498 S   0  0  0  0  0  0  0  0  0  0  0  0
   -0.1362  -13.9757   32.0559 N   0  0  0  0  0  0  0  0  0  0  0  0
    0.3885  -13.9783   33.3983 C   0  0  2  0  0  0  0  0  0  0  0  0
    1.7891  -13.4262   33.3511 C   0  0  0  0  0  0  0  0  0  0  0  0
    2.2589  -13.1085   32.1966 O   0  0  0  0  0  0  0  0  0  0  0  0
    0.4532  -15.3401   34.0071 C   0  0  0  0  0  0  0  0  0  0  0  0
   -0.8558  -16.0171   34.2274 C   0  0  0  0  0  0  0  0  0  0  0  0
   -1.3167  -16.2210   35.5163 C   0  0  0  0  0  0  0  0  0  0  0  0
   -1.6278  -16.4622   33.1860 C   0  0  0  0  0  0  0  0  0  0  0  0
   -2.5104  -16.8515   35.7281 C   0  0  0  0  0  0  0  0  0  0  0  0
   -2.8268  -17.0950   33.4291 C   0  0  0  0  0  0  0  0  0  0  0  0
   -3.3050  -17.3092   34.7027 C   0  0  0  0  0  0  0  0  0  0  0  0
    2.6475  -13.2158   34.4423 N   0  0  0  0  0  0  0  0  0  0  0  0
    2.1829  -12.6464   35.7253 C   0  0  2  0  0  0  0  0  0  0  0  0
    2.7316  -11.2850   35.9513 C   0  0  0  0  0  0  0  0  0  0  0  0
    4.0153  -11.2200   35.9411 O   0  0  0  0  0  0  0  0  0  0  0  0
    2.8803  -13.6427   36.6851 C   0  0  0  0  0  0  0  0  0  0  0  0
    4.2223  -13.8613   36.0468 C   0  0  0  0  0  0  0  0  0  0  0  0
    4.0499  -13.4482   34.6249 C   0  0  0  0  0  0  0  0  0  0  0  0
    2.0149  -10.1008   36.1663 N   0  0  0  0  0  0  0  0  0  0  0  0
    1.0254   -9.7988   37.1638 C   0  0  2  0  0  0  0  0  0  0  0  0
    1.0869   -8.3053   37.4554 C   0  0  0  0  0  0  0  0  0  0  0  0
    2.2341   -7.8605   37.7143 O   0  0  0  0  0  0  0  0  0  0  0  0
    1.1668  -10.4627   38.4782 C   0  0  0  0  0  0  0  0  0  0  0  0
    0.2949   -9.8537   39.4975 C   0  0  0  0  0  0  0  0  0  0  0  0
   -0.7185   -8.9421   39.1518 O   0  0  0  0  0  0  0  0  0  0  0  0
    0.4287  -10.1309   40.7144 O   0  0  0  0  0  0  0  0  0  0  0  0
   -1.0613   -6.5905   37.7398 O   0  0  0  0  0  0  0  0  0  0  0  0
   -2.6376   -1.0818   37.6799 H   0  0  0  0  0  0  0  0  0  0  0  0
  1  2  1  0
  1106  1  0
  1112  1  0
  2  3  1  0
  2112  1  1
  3  4  2  0
  3  5  1  0
  5  6  1  0
  6  7  1  0
  6  9  1  1
  7  8  2  0
  7 16  1  0
  9 10  1  0
 10 11  1  0
 11 12  1  0
 12 13  1  0
 13 14  1  0
 13 15  2  0
 17 16  1  1
 17 18  1  0
 17 20  1  0
 18 19  2  0
 18 22  1  0
 20 21  1  0
 21 85  1  0
 22 23  1  0
 23 24  1  0
 23 26  1  6
 24 25  2  0
 24 34  1  0
 26 27  1  0
 27 28  2  0
 27 29  1  0
 28 30  1  0
 29 31  2  0
 30 32  2  0
 31 32  1  0
 32 33  1  0
 34 35  1  0
 35 36  1  0
 35 38  1  1
 36 37  2  0
 36 43  1  0
 38 39  1  0
 39 40  1  0
 40 41  1  0
 41 42  1  0
 43 44  1  0
 44 45  1  0
 44 47  1  6
 45 46  2  0
 45 49  1  0
 47 48  1  0
 49 50  1  0
 50 51  1  0
 50 53  1  6
 51 52  2  0
 51 58  1  0
 53 54  1  0
 54 55  1  0
 55 56  1  0
 56 57  1  0
 58 59  1  0
 58 64  1  0
 59 60  1  0
 59 62  1  6
 60 61  2  0
 60 65  1  0
 62 63  1  0
 63 64  1  0
 65 66  1  0
 65 71  1  0
 66 67  1  0
 66 69  1  6
 67 68  2  0
 67 72  1  0
 69 70  1  0
 70 71  1  0
 73 72  1  6
 73 74  1  0
 73 76  1  0
 74 75  2  0
 74 80  1  0
 76 77  1  0
 76 78  1  6
 77 79  1  0
 81 80  1  1
 81 82  1  0
 81 84  1  0
 82 83  2  0
 82 86  1  0
 84 85  1  0
 86 87  1  0
 87 88  1  0
 87 90  1  6
 88 89  2  0
 88 97  1  0
 90 91  1  0
 91 92  2  0
 91 93  1  0
 92 94  1  0
 93 95  2  0
 94 96  2  0
 95 96  1  0
 97 98  1  0
 97103  1  0
 98 99  1  0
 98101  1  1
 99100  2  0
 99104  1  0
101102  1  0
102103  1  0
104105  1  0
105106  1  0
105108  1  1
106107  2  0
108109  1  0
109110  1  0
109111  2  0
 15113  1  0
M  CHG  2  42   1  57   1
M  END
$$$$
