
     RDKit          3D

113120  0  0  0  0  0  0  0  0999 V2000
  -12.1940  -16.0416   31.7788 N   0  0  0  0  0  0  0  0  0  0  0  0
  -11.5267  -14.9137   32.0867 C   0  0  2  0  0  0  0  0  0  0  0  0
  -11.0585  -14.7549   33.4875 C   0  0  0  0  0  0  0  0  0  0  0  0
  -10.6211  -15.8306   34.0328 O   0  0  0  0  0  0  0  0  0  0  0  0
  -11.0847  -13.5299   34.1766 N   0  0  0  0  0  0  0  0  0  0  0  0
  -10.7224  -12.2405   33.6204 C   0  0  2  0  0  0  0  0  0  0  0  0
  -10.1880  -11.2889   34.6075 C   0  0  0  0  0  0  0  0  0  0  0  0
  -10.9685  -10.9177   35.5414 O   0  0  0  0  0  0  0  0  0  0  0  0
  -11.8880  -11.6923   32.8400 C   0  0  0  0  0  0  0  0  0  0  0  0
  -13.1985  -12.0091   33.4805 C   0  0  0  0  0  0  0  0  0  0  0  0
  -13.5441  -10.9539   34.5205 C   0  0  0  0  0  0  0  0  0  0  0  0
  -13.4178  -11.5307   35.8308 N   0  0  0  0  0  0  0  0  0  0  0  0
  -13.9792  -10.8891   36.9519 C   0  0  0  0  0  0  0  0  0  0  0  0
  -13.2585   -9.9564   37.7153 N   0  0  0  0  0  0  0  0  0  0  0  0
  -15.2160  -11.1768   37.2936 N   0  0  0  0  0  0  0  0  0  0  0  0
   -8.8949  -10.7397   34.6353 N   0  0  0  0  0  0  0  0  0  0  0  0
   -8.0848  -10.3884   33.4797 C   0  0  2  0  0  0  0  0  0  0  0  0
   -8.8842   -9.6159   32.4905 C   0  0  0  0  0  0  0  0  0  0  0  0
   -9.1044  -10.2805   31.4096 O   0  0  0  0  0  0  0  0  0  0  0  0
   -7.5177  -11.6743   32.9223 C   0  0  0  0  0  0  0  0  0  0  0  0
   -5.6848  -11.6575   32.8516 S   0  0  0  0  0  0  0  0  0  0  0  0
   -9.3925   -8.3345   32.5916 N   0  0  0  0  0  0  0  0  0  0  0  0
   -8.7327   -7.0593   32.8241 C   0  0  2  0  0  0  0  0  0  0  0  0
   -7.3504   -7.0747   32.3063 C   0  0  0  0  0  0  0  0  0  0  0  0
   -7.3039   -7.7993   31.2196 O   0  0  0  0  0  0  0  0  0  0  0  0
   -8.8967   -6.5426   34.2057 C   0  0  0  0  0  0  0  0  0  0  0  0
  -10.2671   -6.7269   34.7389 C   0  0  0  0  0  0  0  0  0  0  0  0
  -11.3741   -6.5742   33.8951 C   0  0  0  0  0  0  0  0  0  0  0  0
  -10.5495   -7.0276   36.0514 C   0  0  0  0  0  0  0  0  0  0  0  0
  -12.6651   -6.7121   34.3308 C   0  0  0  0  0  0  0  0  0  0  0  0
  -11.8419   -7.1675   36.4976 C   0  0  0  0  0  0  0  0  0  0  0  0
  -12.9273   -7.0123   35.6449 C   0  0  0  0  0  0  0  0  0  0  0  0
  -14.2232   -7.1507   36.0798 O   0  0  0  0  0  0  0  0  0  0  0  0
   -6.1624   -6.5210   32.7031 N   0  0  0  0  0  0  0  0  0  0  0  0
   -5.5107   -5.2477   32.6020 C   0  0  2  0  0  0  0  0  0  0  0  0
   -4.8371   -4.9766   33.9074 C   0  0  0  0  0  0  0  0  0  0  0  0
   -5.3172   -5.5452   34.9237 O   0  0  0  0  0  0  0  0  0  0  0  0
   -6.1894   -4.1107   31.9840 C   0  0  0  0  0  0  0  0  0  0  0  0
   -6.1084   -2.7547   32.5488 C   0  0  0  0  0  0  0  0  0  0  0  0
   -5.2860   -2.5596   33.7788 C   0  0  0  0  0  0  0  0  0  0  0  0
   -5.9966   -2.9146   35.0535 C   0  0  0  0  0  0  0  0  0  0  0  0
   -6.3047   -1.6677   35.7431 N   0  0  0  0  0  4  0  0  0  0  0  0
   -3.7220   -4.1466   34.0889 N   0  0  0  0  0  0  0  0  0  0  0  0
   -2.5445   -4.1009   33.2248 C   0  0  2  0  0  0  0  0  0  0  0  0
   -1.5870   -5.1557   33.6112 C   0  0  0  0  0  0  0  0  0  0  0  0
   -1.0074   -4.9429   34.7445 O   0  0  0  0  0  0  0  0  0  0  0  0
   -1.8645   -2.7551   33.5109 C   0  0  0  0  0  0  0  0  0  0  0  0
   -0.5101   -2.8100   33.2246 O   0  0  0  0  0  0  0  0  0  0  0  0
   -1.2353   -6.3239   32.9337 N   0  0  0  0  0  0  0  0  0  0  0  0
   -0.4745   -6.4429   31.6835 C   0  0  2  0  0  0  0  0  0  0  0  0
    0.8378   -7.0276   31.9594 C   0  0  0  0  0  0  0  0  0  0  0  0
    1.5305   -6.4110   32.8586 O   0  0  0  0  0  0  0  0  0  0  0  0
   -0.6252   -5.2922   30.7714 C   0  0  0  0  0  0  0  0  0  0  0  0
   -0.5117   -5.4939   29.3184 C   0  0  0  0  0  0  0  0  0  0  0  0
   -0.2824   -6.8284   28.7385 C   0  0  0  0  0  0  0  0  0  0  0  0
   -1.4720   -7.7055   28.5061 C   0  0  0  0  0  0  0  0  0  0  0  0
   -1.8426   -8.0110   27.1820 N   0  0  0  0  0  4  0  0  0  0  0  0
    1.3951   -8.1848   31.3434 N   0  0  0  0  0  0  0  0  0  0  0  0
    0.6536   -9.3762   30.9576 C   0  0  2  0  0  0  0  0  0  0  0  0
    1.0645  -10.4276   31.9383 C   0  0  0  0  0  0  0  0  0  0  0  0
    0.7751  -10.1093   33.1564 O   0  0  0  0  0  0  0  0  0  0  0  0
    1.1369   -9.5939   29.5640 C   0  0  0  0  0  0  0  0  0  0  0  0
    2.5425   -8.9809   29.5463 C   0  0  0  0  0  0  0  0  0  0  0  0
    2.7714   -8.5023   30.9667 C   0  0  0  0  0  0  0  0  0  0  0  0
    1.6876  -11.6399   31.7105 N   0  0  0  0  0  0  0  0  0  0  0  0
    1.2453  -12.7447   30.8576 C   0  0  2  0  0  0  0  0  0  0  0  0
   -0.1832  -12.6880   30.5119 C   0  0  0  0  0  0  0  0  0  0  0  0
   -0.9163  -12.2726   31.5094 O   0  0  0  0  0  0  0  0  0  0  0  0
    1.4362  -13.9303   31.7787 C   0  0  0  0  0  0  0  0  0  0  0  0
    2.6020  -13.5545   32.6158 C   0  0  0  0  0  0  0  0  0  0  0  0
    2.9641  -12.1524   32.2585 C   0  0  0  0  0  0  0  0  0  0  0  0
   -0.8780  -12.9832   29.3521 N   0  0  0  0  0  0  0  0  0  0  0  0
   -1.1812  -14.1218   28.5922 C   0  0  2  0  0  0  0  0  0  0  0  0
   -2.6171  -14.4883   28.4890 C   0  0  0  0  0  0  0  0  0  0  0  0
   -3.0819  -14.4465   27.2744 O   0  0  0  0  0  0  0  0  0  0  0  0
   -0.4214  -15.3828   28.6725 C   0  0  2  0  0  0  0  0  0  0  0  0
   -0.8753  -16.3673   29.7147 C   0  0  0  0  0  0  0  0  0  0  0  0
    1.0477  -15.0760   29.0973 C   0  0  0  0  0  0  0  0  0  0  0  0
   -0.7828  -15.6813   31.0813 C   0  0  0  0  0  0  0  0  0  0  0  0
   -3.5351  -14.8625   29.4509 N   0  0  0  0  0  0  0  0  0  0  0  0
   -3.4687  -14.9498   30.8689 C   0  0  2  0  0  0  0  0  0  0  0  0
   -3.1793  -16.2672   31.4404 C   0  0  0  0  0  0  0  0  0  0  0  0
   -1.9659  -16.3722   31.9206 O   0  0  0  0  0  0  0  0  0  0  0  0
   -4.7932  -14.3861   31.4435 C   0  0  0  0  0  0  0  0  0  0  0  0
   -4.9408  -12.6222   31.1382 S   0  0  0  0  0  0  0  0  0  0  0  0
   -3.9800  -17.4164   31.5548 N   0  0  0  0  0  0  0  0  0  0  0  0
   -4.9688  -17.9444   30.6488 C   0  0  2  0  0  0  0  0  0  0  0  0
   -5.5638  -19.1774   31.2770 C   0  0  0  0  0  0  0  0  0  0  0  0
   -5.0914  -19.5455   32.4153 O   0  0  0  0  0  0  0  0  0  0  0  0
   -4.4088  -18.3321   29.3201 C   0  0  0  0  0  0  0  0  0  0  0  0
   -2.9282  -18.4889   29.2589 C   0  0  0  0  0  0  0  0  0  0  0  0
   -2.1802  -18.4186   30.4211 C   0  0  0  0  0  0  0  0  0  0  0  0
   -2.2677  -18.6926   28.0753 C   0  0  0  0  0  0  0  0  0  0  0  0
   -0.8208  -18.5494   30.3730 C   0  0  0  0  0  0  0  0  0  0  0  0
   -0.8964  -18.8205   28.0566 C   0  0  0  0  0  0  0  0  0  0  0  0
   -0.1317  -18.7534   29.2000 C   0  0  0  0  0  0  0  0  0  0  0  0
   -6.5913  -19.9771   30.7512 N   0  0  0  0  0  0  0  0  0  0  0  0
   -7.7903  -19.4091   30.0984 C   0  0  2  0  0  0  0  0  0  0  0  0
   -9.0131  -19.6287   30.9121 C   0  0  0  0  0  0  0  0  0  0  0  0
   -9.2630  -20.8618   31.1754 O   0  0  0  0  0  0  0  0  0  0  0  0
   -7.8336  -20.3315   28.8544 C   0  0  0  0  0  0  0  0  0  0  0  0
   -7.4653  -21.6792   29.4060 C   0  0  0  0  0  0  0  0  0  0  0  0
   -6.7764  -21.3973   30.6974 C   0  0  0  0  0  0  0  0  0  0  0  0
   -9.8938  -18.6588   31.4080 N   0  0  0  0  0  0  0  0  0  0  0  0
  -10.6218  -17.6391   30.7042 C   0  0  2  0  0  0  0  0  0  0  0  0
  -11.9043  -17.3550   31.4748 C   0  0  0  0  0  0  0  0  0  0  0  0
  -12.5869  -18.3704   31.7648 O   0  0  0  0  0  0  0  0  0  0  0  0
  -11.0526  -17.9479   29.3231 C   0  0  0  0  0  0  0  0  0  0  0  0
  -10.8324  -19.3642   28.9831 C   0  0  0  0  0  0  0  0  0  0  0  0
  -11.7775  -20.3551   29.3032 O   0  0  0  0  0  0  0  0  0  0  0  0
   -9.7884  -19.7344   28.3927 O   0  0  0  0  0  0  0  0  0  0  0  0
  -12.9799  -14.8704   32.0284 O   0  0  0  0  0  0  0  0  0  0  0  0
  -15.6565  -10.7915   38.1405 H   0  0  0  0  0  0  0  0  0  0  0  0
  1  2  1  0
  1106  1  0
  1112  1  0
  2  3  1  0
  2112  1  1
  3  4  2  0
  3  5  1  0
  5  6  1  0
  6  7  1  0
  6  9  1  1
  7  8  2  0
  7 16  1  0
  9 10  1  0
 10 11  1  0
 11 12  1  0
 12 13  1  0
 13 14  1  0
 13 15  2  0
 17 16  1  1
 17 18  1  0
 17 20  1  0
 18 19  2  0
 18 22  1  0
 20 21  1  0
 21 85  1  0
 22 23  1  0
 23 24  1  0
 23 26  1  1
 24 25  2  0
 24 34  1  0
 26 27  1  0
 27 28  2  0
 27 29  1  0
 28 30  1  0
 29 31  2  0
 30 32  2  0
 31 32  1  0
 32 33  1  0
 34 35  1  0
 35 36  1  0
 35 38  1  1
 36 37  2  0
 36 43  1  0
 38 39  1  0
 39 40  1  0
 40 41  1  0
 41 42  1  0
 43 44  1  0
 44 45  1  0
 44 47  1  1
 45 46  2  0
 45 49  1  0
 47 48  1  0
 49 50  1  0
 50 51  1  0
 50 53  1  1
 51 52  2  0
 51 58  1  0
 53 54  1  0
 54 55  1  0
 55 56  1  0
 56 57  1  0
 58 59  1  0
 58 64  1  0
 59 60  1  0
 59 62  1  6
 60 61  2  0
 60 65  1  0
 62 63  1  0
 63 64  1  0
 65 66  1  0
 65 71  1  0
 66 67  1  0
 66 69  1  1
 67 68  2  0
 67 72  1  0
 69 70  1  0
 70 71  1  0
 73 72  1  1
 73 74  1  0
 73 76  1  0
 74 75  2  0
 74 80  1  0
 76 77  1  0
 76 78  1  1
 77 79  1  0
 81 80  1  6
 81 82  1  0
 81 84  1  0
 82 83  2  0
 82 86  1  0
 84 85  1  0
 86 87  1  0
 87 88  1  0
 87 90  1  6
 88 89  2  0
 88 97  1  0
 90 91  1  0
 91 92  2  0
 91 93  1  0
 92 94  1  0
 93 95  2  0
 94 96  2  0
 95 96  1  0
 97 98  1  0
 97103  1  0
 98 99  1  0
 98101  1  6
 99100  2  0
 99104  1  0
101102  1  0
102103  1  0
104105  1  0
105106  1  0
105108  1  6
106107  2  0
108109  1  0
109110  1  0
109111  2  0
 15113  1  0
M  CHG  2  42   1  57   1
M  END
$$$$
