
     RDKit          3D

113120  0  0  0  0  0  0  0  0999 V2000
   -6.5546  -13.2662   24.1512 N   0  0  0  0  0  0  0  0  0  0  0  0
   -6.8268  -12.7439   25.3617 C   0  0  2  0  0  0  0  0  0  0  0  0
   -8.1066  -13.1366   26.0058 C   0  0  0  0  0  0  0  0  0  0  0  0
   -8.4370  -14.3650   25.8390 O   0  0  0  0  0  0  0  0  0  0  0  0
   -8.9050  -12.2459   26.7441 N   0  0  0  0  0  0  0  0  0  0  0  0
   -8.4173  -11.2581   27.6872 C   0  0  2  0  0  0  0  0  0  0  0  0
   -9.3603  -10.9470   28.7733 C   0  0  0  0  0  0  0  0  0  0  0  0
  -10.4698  -10.4159   28.4478 O   0  0  0  0  0  0  0  0  0  0  0  0
   -7.9585  -10.0376   26.9336 C   0  0  0  0  0  0  0  0  0  0  0  0
   -8.9954   -9.5333   25.9858 C   0  0  0  0  0  0  0  0  0  0  0  0
   -9.9145  -10.6683   25.5596 C   0  0  0  0  0  0  0  0  0  0  0  0
   -9.3782  -11.9105   26.0443 N   0  0  0  0  0  0  0  0  0  0  0  0
  -10.1463  -13.0899   25.9925 C   0  0  0  0  0  0  0  0  0  0  0  0
  -11.4414  -13.1126   25.4499 N   0  0  0  0  0  0  0  0  0  0  0  0
   -9.6330  -14.2022   26.4707 N   0  0  0  0  0  0  0  0  0  0  0  0
   -9.1704  -11.1764   30.1466 N   0  0  0  0  0  0  0  0  0  0  0  0
   -7.9115  -11.0809   30.8685 C   0  0  2  0  0  0  0  0  0  0  0  0
   -7.1951   -9.8254   30.5153 C   0  0  0  0  0  0  0  0  0  0  0  0
   -6.1236  -10.0451   29.8355 O   0  0  0  0  0  0  0  0  0  0  0  0
   -7.1212  -12.3321   30.5587 C   0  0  0  0  0  0  0  0  0  0  0  0
   -6.6687  -13.2657   32.0713 S   0  0  0  0  0  0  0  0  0  0  0  0
   -7.5288   -8.5181   30.8157 N   0  0  0  0  0  0  0  0  0  0  0  0
   -7.7441   -7.8550   32.0922 C   0  0  2  0  0  0  0  0  0  0  0  0
   -6.9482   -8.4900   33.1610 C   0  0  0  0  0  0  0  0  0  0  0  0
   -5.8090   -8.8981   32.6674 O   0  0  0  0  0  0  0  0  0  0  0  0
   -9.1739   -7.6159   32.4100 C   0  0  0  0  0  0  0  0  0  0  0  0
  -10.0531   -8.7470   32.0306 C   0  0  0  0  0  0  0  0  0  0  0  0
  -10.0370   -9.2384   30.7195 C   0  0  0  0  0  0  0  0  0  0  0  0
  -10.9319   -9.3627   32.8918 C   0  0  0  0  0  0  0  0  0  0  0  0
  -10.8385  -10.2672   30.3017 C   0  0  0  0  0  0  0  0  0  0  0  0
  -11.7402  -10.3956   32.4812 C   0  0  0  0  0  0  0  0  0  0  0  0
  -11.7097  -10.8694   31.1759 C   0  0  0  0  0  0  0  0  0  0  0  0
  -12.5125  -11.9017   30.7548 O   0  0  0  0  0  0  0  0  0  0  0  0
   -7.1399   -8.7339   34.4950 N   0  0  0  0  0  0  0  0  0  0  0  0
   -7.0321   -8.0017   35.7232 C   0  0  2  0  0  0  0  0  0  0  0  0
   -8.1872   -8.3903   36.5870 C   0  0  0  0  0  0  0  0  0  0  0  0
   -9.2194   -8.8112   36.0006 O   0  0  0  0  0  0  0  0  0  0  0  0
   -6.6880   -6.5816   35.7159 C   0  0  0  0  0  0  0  0  0  0  0  0
   -7.6708   -5.5440   35.3671 C   0  0  0  0  0  0  0  0  0  0  0  0
   -8.5177   -4.9890   36.4634 C   0  0  0  0  0  0  0  0  0  0  0  0
   -9.3393   -3.7982   36.0599 C   0  0  0  0  0  0  0  0  0  0  0  0
   -9.3923   -2.8966   37.2043 N   0  0  0  0  0  4  0  0  0  0  0  0
   -8.2124   -8.3245   37.9872 N   0  0  0  0  0  0  0  0  0  0  0  0
   -7.1290   -8.7327   38.8787 C   0  0  2  0  0  0  0  0  0  0  0  0
   -7.1977  -10.1850   39.1332 C   0  0  0  0  0  0  0  0  0  0  0  0
   -8.1992  -10.5383   39.8664 O   0  0  0  0  0  0  0  0  0  0  0  0
   -7.3992   -8.0323   40.2175 C   0  0  0  0  0  0  0  0  0  0  0  0
   -7.2710   -8.9156   41.2770 O   0  0  0  0  0  0  0  0  0  0  0  0
   -6.3477  -11.2018   38.6962 N   0  0  0  0  0  0  0  0  0  0  0  0
   -4.9600  -11.4509   39.1062 C   0  0  2  0  0  0  0  0  0  0  0  0
   -4.8937  -12.6783   39.8995 C   0  0  0  0  0  0  0  0  0  0  0  0
   -5.6843  -12.7101   40.9205 O   0  0  0  0  0  0  0  0  0  0  0  0
   -4.2201  -10.2380   39.5064 C   0  0  0  0  0  0  0  0  0  0  0  0
   -3.8477   -9.2423   38.4891 C   0  0  0  0  0  0  0  0  0  0  0  0
   -4.8586   -8.5894   37.6398 C   0  0  0  0  0  0  0  0  0  0  0  0
   -5.8956   -9.4534   36.9942 C   0  0  0  0  0  0  0  0  0  0  0  0
   -7.0617   -8.8498   36.4848 N   0  0  0  0  0  4  0  0  0  0  0  0
   -4.0613  -13.8061   39.6455 N   0  0  0  0  0  0  0  0  0  0  0  0
   -3.7227  -14.3265   38.3293 C   0  0  2  0  0  0  0  0  0  0  0  0
   -4.4844  -15.6074   38.2070 C   0  0  0  0  0  0  0  0  0  0  0  0
   -5.7618  -15.4343   38.2919 O   0  0  0  0  0  0  0  0  0  0  0  0
   -2.2439  -14.4832   38.4385 C   0  0  0  0  0  0  0  0  0  0  0  0
   -1.9925  -14.7097   39.9342 C   0  0  0  0  0  0  0  0  0  0  0  0
   -3.3738  -14.7161   40.5599 C   0  0  0  0  0  0  0  0  0  0  0  0
   -4.0103  -16.8925   38.0240 N   0  0  0  0  0  0  0  0  0  0  0  0
   -3.1632  -17.4053   36.9457 C   0  0  2  0  0  0  0  0  0  0  0  0
   -3.1331  -16.5402   35.7566 C   0  0  0  0  0  0  0  0  0  0  0  0
   -4.2990  -16.0100   35.5023 O   0  0  0  0  0  0  0  0  0  0  0  0
   -3.8998  -18.6700   36.5606 C   0  0  0  0  0  0  0  0  0  0  0  0
   -4.5065  -19.1371   37.8313 C   0  0  0  0  0  0  0  0  0  0  0  0
   -4.2234  -18.0954   38.8607 C   0  0  0  0  0  0  0  0  0  0  0  0
   -2.1217  -16.1894   34.8797 N   0  0  0  0  0  0  0  0  0  0  0  0
   -1.3323  -16.8217   33.9087 C   0  0  2  0  0  0  0  0  0  0  0  0
   -1.4971  -16.3512   32.5092 C   0  0  0  0  0  0  0  0  0  0  0  0
   -0.4179  -15.8312   32.0014 O   0  0  0  0  0  0  0  0  0  0  0  0
   -1.1241  -18.2802   33.8490 C   0  0  2  0  0  0  0  0  0  0  0  0
   -2.0511  -19.0477   32.9474 C   0  0  0  0  0  0  0  0  0  0  0  0
   -1.4063  -18.9012   35.2517 C   0  0  0  0  0  0  0  0  0  0  0  0
   -3.2014  -18.1160   32.5528 C   0  0  0  0  0  0  0  0  0  0  0  0
   -2.5880  -16.3705   31.6622 N   0  0  0  0  0  0  0  0  0  0  0  0
   -3.9443  -16.7595   31.8411 C   0  0  2  0  0  0  0  0  0  0  0  0
   -4.3071  -18.1155   31.4219 C   0  0  0  0  0  0  0  0  0  0  0  0
   -4.5084  -18.9345   32.4233 O   0  0  0  0  0  0  0  0  0  0  0  0
   -4.8382  -15.7122   31.1295 C   0  0  0  0  0  0  0  0  0  0  0  0
   -4.7492  -14.1140   31.9444 S   0  0  0  0  0  0  0  0  0  0  0  0
   -4.4715  -18.6693   30.1409 N   0  0  0  0  0  0  0  0  0  0  0  0
   -3.7454  -18.4075   28.9237 C   0  0  2  0  0  0  0  0  0  0  0  0
   -4.3578  -19.2408   27.8285 C   0  0  0  0  0  0  0  0  0  0  0  0
   -5.3286  -20.0197   28.1533 O   0  0  0  0  0  0  0  0  0  0  0  0
   -2.2966  -18.7581   29.0102 C   0  0  0  0  0  0  0  0  0  0  0  0
   -1.9832  -20.0846   29.6122 C   0  0  0  0  0  0  0  0  0  0  0  0
   -0.6711  -20.5208   29.6711 C   0  0  0  0  0  0  0  0  0  0  0  0
   -2.9615  -20.9068   30.1078 C   0  0  0  0  0  0  0  0  0  0  0  0
   -0.3756  -21.7410   30.2107 C   0  0  0  0  0  0  0  0  0  0  0  0
   -2.6345  -22.1320   30.6456 C   0  0  0  0  0  0  0  0  0  0  0  0
   -1.3364  -22.5868   30.7143 C   0  0  0  0  0  0  0  0  0  0  0  0
   -3.9823  -19.2591   26.4755 N   0  0  0  0  0  0  0  0  0  0  0  0
   -3.6566  -18.0301   25.7207 C   0  0  2  0  0  0  0  0  0  0  0  0
   -4.6831  -17.7321   24.6897 C   0  0  0  0  0  0  0  0  0  0  0  0
   -4.8680  -18.6740   23.8347 O   0  0  0  0  0  0  0  0  0  0  0  0
   -2.3634  -18.5236   25.0247 C   0  0  0  0  0  0  0  0  0  0  0  0
   -2.6873  -19.9420   24.6515 C   0  0  0  0  0  0  0  0  0  0  0  0
   -3.8265  -20.3269   25.5323 C   0  0  0  0  0  0  0  0  0  0  0  0
   -5.4478  -16.5657   24.5588 N   0  0  0  0  0  0  0  0  0  0  0  0
   -5.0187  -15.1997   24.4357 C   0  0  2  0  0  0  0  0  0  0  0  0
   -6.0664  -14.4449   23.6282 C   0  0  0  0  0  0  0  0  0  0  0  0
   -6.3901  -14.9849   22.5398 O   0  0  0  0  0  0  0  0  0  0  0  0
   -3.7353  -14.9547   23.7421 C   0  0  0  0  0  0  0  0  0  0  0  0
   -2.9495  -16.1913   23.5884 C   0  0  0  0  0  0  0  0  0  0  0  0
   -3.1782  -17.0831   22.5254 O   0  0  0  0  0  0  0  0  0  0  0  0
   -2.0449  -16.4903   24.4056 O   0  0  0  0  0  0  0  0  0  0  0  0
   -7.0800  -11.9340   24.1798 O   0  0  0  0  0  0  0  0  0  0  0  0
   -9.1093  -14.8642   25.8814 H   0  0  0  0  0  0  0  0  0  0  0  0
  1  2  1  0
  1106  1  0
  1112  1  0
  2  3  1  0
  2112  1  6
  3  4  2  0
  3  5  1  0
  5  6  1  0
  6  7  1  0
  6  9  1  6
  7  8  2  0
  7 16  1  0
  9 10  1  0
 10 11  1  0
 11 12  1  0
 12 13  1  0
 13 14  1  0
 13 15  2  0
 17 16  1  6
 17 18  1  0
 17 20  1  0
 18 19  2  0
 18 22  1  0
 20 21  1  0
 21 85  1  0
 22 23  1  0
 23 24  1  0
 23 26  1  1
 24 25  2  0
 24 34  1  0
 26 27  1  0
 27 28  2  0
 27 29  1  0
 28 30  1  0
 29 31  2  0
 30 32  2  0
 31 32  1  0
 32 33  1  0
 34 35  1  0
 35 36  1  0
 35 38  1  6
 36 37  2  0
 36 43  1  0
 38 39  1  0
 39 40  1  0
 40 41  1  0
 41 42  1  0
 43 44  1  0
 44 45  1  0
 44 47  1  1
 45 46  2  0
 45 49  1  0
 47 48  1  0
 49 50  1  0
 50 51  1  0
 50 53  1  1
 51 52  2  0
 51 58  1  0
 53 54  1  0
 54 55  1  0
 55 56  1  0
 56 57  1  0
 58 59  1  0
 58 64  1  0
 59 60  1  0
 59 62  1  1
 60 61  2  0
 60 65  1  0
 62 63  1  0
 63 64  1  0
 65 66  1  0
 65 71  1  0
 66 67  1  0
 66 69  1  6
 67 68  2  0
 67 72  1  0
 69 70  1  0
 70 71  1  0
 73 72  1  1
 73 74  1  0
 73 76  1  0
 74 75  2  0
 74 80  1  0
 76 77  1  0
 76 78  1  1
 77 79  1  0
 81 80  1  6
 81 82  1  0
 81 84  1  0
 82 83  2  0
 82 86  1  0
 84 85  1  0
 86 87  1  0
 87 88  1  0
 87 90  1  1
 88 89  2  0
 88 97  1  0
 90 91  1  0
 91 92  2  0
 91 93  1  0
 92 94  1  0
 93 95  2  0
 94 96  2  0
 95 96  1  0
 97 98  1  0
 97103  1  0
 98 99  1  0
 98101  1  6
 99100  2  0
 99104  1  0
101102  1  0
102103  1  0
104105  1  0
105106  1  0
105108  1  6
106107  2  0
108109  1  0
109110  1  0
109111  2  0
 15113  1  0
M  CHG  2  42   1  57   1
M  END
$$$$
