
     RDKit          3D

113120  0  0  0  0  0  0  0  0999 V2000
   -9.2611  -19.6372   31.0522 N   0  0  0  0  0  0  0  0  0  0  0  0
   -9.3499  -18.3530   31.4464 C   0  0  2  0  0  0  0  0  0  0  0  0
   -9.0275  -18.0472   32.8639 C   0  0  0  0  0  0  0  0  0  0  0  0
   -8.0439  -18.7142   33.3470 O   0  0  0  0  0  0  0  0  0  0  0  0
   -9.7335  -17.1037   33.6304 N   0  0  0  0  0  0  0  0  0  0  0  0
  -10.1823  -15.8050   33.1668 C   0  0  2  0  0  0  0  0  0  0  0  0
  -10.2660  -14.7852   34.2244 C   0  0  0  0  0  0  0  0  0  0  0  0
  -11.0997  -14.9869   35.1642 O   0  0  0  0  0  0  0  0  0  0  0  0
  -11.4681  -15.9698   32.4000 C   0  0  0  0  0  0  0  0  0  0  0  0
  -11.3260  -16.9111   31.2503 C   0  0  0  0  0  0  0  0  0  0  0  0
  -10.1169  -17.8115   31.4544 C   0  0  0  0  0  0  0  0  0  0  0  0
   -9.8903  -18.5684   30.2537 N   0  0  0  0  0  0  0  0  0  0  0  0
   -8.8845  -19.5532   30.2081 C   0  0  0  0  0  0  0  0  0  0  0  0
   -7.9560  -19.6221   29.1568 N   0  0  0  0  0  0  0  0  0  0  0  0
   -8.8172  -20.4361   31.1805 N   0  0  0  0  0  0  0  0  0  0  0  0
   -9.5165  -13.6000   34.3143 N   0  0  0  0  0  0  0  0  0  0  0  0
   -9.0749  -12.7751   33.2008 C   0  0  2  0  0  0  0  0  0  0  0  0
  -10.1920  -12.5340   32.2477 C   0  0  0  0  0  0  0  0  0  0  0  0
  -10.0158  -13.1334   31.1217 O   0  0  0  0  0  0  0  0  0  0  0  0
   -7.8873  -13.4687   32.5727 C   0  0  0  0  0  0  0  0  0  0  0  0
   -6.3931  -12.4053   32.5408 S   0  0  0  0  0  0  0  0  0  0  0  0
  -11.3380  -11.7809   32.4214 N   0  0  0  0  0  0  0  0  0  0  0  0
  -11.5184  -10.3755   32.7499 C   0  0  2  0  0  0  0  0  0  0  0  0
  -10.3849   -9.5664   32.2605 C   0  0  0  0  0  0  0  0  0  0  0  0
   -9.9557  -10.0625   31.1302 O   0  0  0  0  0  0  0  0  0  0  0  0
  -11.9197  -10.1357   34.1584 C   0  0  0  0  0  0  0  0  0  0  0  0
  -11.8390  -11.3507   35.0032 C   0  0  0  0  0  0  0  0  0  0  0  0
  -11.6534  -12.6056   34.4104 C   0  0  0  0  0  0  0  0  0  0  0  0
  -11.9568  -11.3456   36.3740 C   0  0  0  0  0  0  0  0  0  0  0  0
  -11.5901  -13.7669   35.1336 C   0  0  0  0  0  0  0  0  0  0  0  0
  -11.8949  -12.5060   37.1077 C   0  0  0  0  0  0  0  0  0  0  0  0
  -11.7099  -13.7419   36.5014 C   0  0  0  0  0  0  0  0  0  0  0  0
  -11.6456  -14.9080   37.2249 O   0  0  0  0  0  0  0  0  0  0  0  0
   -9.7168   -8.4613   32.7168 N   0  0  0  0  0  0  0  0  0  0  0  0
   -9.9097   -7.0404   32.7119 C   0  0  2  0  0  0  0  0  0  0  0  0
   -9.4845   -6.5193   34.0458 C   0  0  0  0  0  0  0  0  0  0  0  0
   -9.5340   -7.3248   35.0129 O   0  0  0  0  0  0  0  0  0  0  0  0
  -11.1279   -6.4560   32.1555 C   0  0  0  0  0  0  0  0  0  0  0  0
  -12.1934   -5.9137   33.0128 C   0  0  0  0  0  0  0  0  0  0  0  0
  -12.7431   -6.7957   34.0839 C   0  0  0  0  0  0  0  0  0  0  0  0
  -12.7371   -6.1749   35.4516 C   0  0  0  0  0  0  0  0  0  0  0  0
  -13.9810   -6.5564   36.1093 N   0  0  0  0  0  4  0  0  0  0  0  0
   -9.0382   -5.2156   34.3036 N   0  0  0  0  0  0  0  0  0  0  0  0
   -8.1147   -4.4507   33.4686 C   0  0  2  0  0  0  0  0  0  0  0  0
   -6.7191   -4.7937   33.8052 C   0  0  0  0  0  0  0  0  0  0  0  0
   -6.3414   -4.3627   34.9615 O   0  0  0  0  0  0  0  0  0  0  0  0
   -8.3178   -2.9793   33.8555 C   0  0  0  0  0  0  0  0  0  0  0  0
   -7.5060   -2.6275   34.9215 O   0  0  0  0  0  0  0  0  0  0  0  0
   -5.7780   -5.5058   33.0605 N   0  0  0  0  0  0  0  0  0  0  0  0
   -5.1107   -5.0882   31.8210 C   0  0  2  0  0  0  0  0  0  0  0  0
   -3.6939   -4.8368   32.0852 C   0  0  0  0  0  0  0  0  0  0  0  0
   -3.4583   -3.9954   33.0365 O   0  0  0  0  0  0  0  0  0  0  0  0
   -5.9090   -4.1724   30.9828 C   0  0  0  0  0  0  0  0  0  0  0  0
   -5.6324   -2.7276   31.0142 C   0  0  0  0  0  0  0  0  0  0  0  0
   -5.0296   -2.0811   32.1924 C   0  0  0  0  0  0  0  0  0  0  0  0
   -4.0637   -2.8776   33.0116 C   0  0  0  0  0  0  0  0  0  0  0  0
   -3.6424   -2.3652   34.2540 N   0  0  0  0  0  4  0  0  0  0  0  0
   -2.5889   -5.4267   31.4068 N   0  0  0  0  0  0  0  0  0  0  0  0
   -2.5265   -6.8000   30.9293 C   0  0  2  0  0  0  0  0  0  0  0  0
   -1.5696   -7.4905   31.8477 C   0  0  0  0  0  0  0  0  0  0  0  0
   -1.9640   -7.4742   33.0777 O   0  0  0  0  0  0  0  0  0  0  0  0
   -2.0337   -6.6121   29.5346 C   0  0  0  0  0  0  0  0  0  0  0  0
   -1.2292   -5.3076   29.5856 C   0  0  0  0  0  0  0  0  0  0  0  0
   -1.2852   -4.8774   31.0385 C   0  0  0  0  0  0  0  0  0  0  0  0
   -0.3713   -8.1134   31.5544 N   0  0  0  0  0  0  0  0  0  0  0  0
   -0.1220   -9.2148   30.6227 C   0  0  2  0  0  0  0  0  0  0  0  0
   -1.3346   -9.9604   30.2522 C   0  0  0  0  0  0  0  0  0  0  0  0
   -2.1533  -10.1030   31.2594 O   0  0  0  0  0  0  0  0  0  0  0  0
    0.7295  -10.1368   31.4685 C   0  0  0  0  0  0  0  0  0  0  0  0
    1.4896   -9.2189   32.3519 C   0  0  0  0  0  0  0  0  0  0  0  0
    0.9803   -7.8409   32.0940 C   0  0  0  0  0  0  0  0  0  0  0  0
   -1.7604  -10.5228   29.0617 N   0  0  0  0  0  0  0  0  0  0  0  0
   -1.3757  -11.5787   28.2233 C   0  0  2  0  0  0  0  0  0  0  0  0
   -2.3481  -12.6908   28.0671 C   0  0  0  0  0  0  0  0  0  0  0  0
   -2.7783  -12.8426   26.8485 O   0  0  0  0  0  0  0  0  0  0  0  0
   -0.0310  -12.1835   28.2370 C   0  0  2  0  0  0  0  0  0  0  0  0
    0.1508  -13.3797   29.1300 C   0  0  0  0  0  0  0  0  0  0  0  0
    0.9923  -11.1574   28.8138 C   0  0  0  0  0  0  0  0  0  0  0  0
   -1.2037  -13.6982   29.7708 C   0  0  0  0  0  0  0  0  0  0  0  0
   -2.8692  -13.5833   28.9837 N   0  0  0  0  0  0  0  0  0  0  0  0
   -2.7361  -13.7091   30.3940 C   0  0  2  0  0  0  0  0  0  0  0  0
   -1.7357  -14.6602   30.8845 C   0  0  0  0  0  0  0  0  0  0  0  0
   -0.6696  -14.0856   31.3817 O   0  0  0  0  0  0  0  0  0  0  0  0
   -4.1336  -14.0400   30.9769 C   0  0  0  0  0  0  0  0  0  0  0  0
   -5.2668  -12.6597   30.7839 S   0  0  0  0  0  0  0  0  0  0  0  0
   -1.7358  -16.0653   30.9075 N   0  0  0  0  0  0  0  0  0  0  0  0
   -2.2652  -17.0026   29.9491 C   0  0  2  0  0  0  0  0  0  0  0  0
   -2.0382  -18.3924   30.4836 C   0  0  0  0  0  0  0  0  0  0  0  0
   -1.4172  -18.4986   31.6050 O   0  0  0  0  0  0  0  0  0  0  0  0
   -1.6112  -16.9144   28.6097 C   0  0  0  0  0  0  0  0  0  0  0  0
   -0.9386  -18.1549   28.1313 C   0  0  0  0  0  0  0  0  0  0  0  0
    0.4431  -18.2118   28.0781 C   0  0  0  0  0  0  0  0  0  0  0  0
   -1.6478  -19.2553   27.7252 C   0  0  0  0  0  0  0  0  0  0  0  0
    1.0682  -19.3411   27.6294 C   0  0  0  0  0  0  0  0  0  0  0  0
   -0.9912  -20.3801   27.2770 C   0  0  0  0  0  0  0  0  0  0  0  0
    0.3823  -20.4592   27.2150 C   0  0  0  0  0  0  0  0  0  0  0  0
   -2.4367  -19.5990   29.8859 N   0  0  0  0  0  0  0  0  0  0  0  0
   -3.7586  -19.7750   29.2470 C   0  0  2  0  0  0  0  0  0  0  0  0
   -4.6211  -20.7049   30.0195 C   0  0  0  0  0  0  0  0  0  0  0  0
   -4.1180  -21.8744   30.1969 O   0  0  0  0  0  0  0  0  0  0  0  0
   -3.2934  -20.4741   27.9450 C   0  0  0  0  0  0  0  0  0  0  0  0
   -2.2114  -21.4038   28.4153 C   0  0  0  0  0  0  0  0  0  0  0  0
   -1.7801  -20.8641   29.7362 C   0  0  0  0  0  0  0  0  0  0  0  0
   -5.8874  -20.4450   30.5592 N   0  0  0  0  0  0  0  0  0  0  0  0
   -7.0810  -19.9791   29.9084 C   0  0  2  0  0  0  0  0  0  0  0  0
   -8.2806  -20.5278   30.6695 C   0  0  0  0  0  0  0  0  0  0  0  0
   -8.2564  -21.7674   30.8789 O   0  0  0  0  0  0  0  0  0  0  0  0
   -7.2867  -20.3879   28.5017 C   0  0  0  0  0  0  0  0  0  0  0  0
   -7.3291  -21.8532   28.3563 C   0  0  0  0  0  0  0  0  0  0  0  0
   -7.1254  -22.7093   29.4531 O   0  0  0  0  0  0  0  0  0  0  0  0
   -7.5503  -22.3879   27.2425 O   0  0  0  0  0  0  0  0  0  0  0  0
  -10.5693  -19.1423   31.3613 O   0  0  0  0  0  0  0  0  0  0  0  0
   -8.2744  -21.3068   31.0962 H   0  0  0  0  0  0  0  0  0  0  0  0
  1  2  1  0
  1106  1  0
  1112  1  0
  2  3  1  0
  2112  1  1
  3  4  2  0
  3  5  1  0
  5  6  1  0
  6  7  1  0
  6  9  1  1
  7  8  2  0
  7 16  1  0
  9 10  1  0
 10 11  1  0
 11 12  1  0
 12 13  1  0
 13 14  1  0
 13 15  2  0
 17 16  1  1
 17 18  1  0
 17 20  1  0
 18 19  2  0
 18 22  1  0
 20 21  1  0
 21 85  1  0
 22 23  1  0
 23 24  1  0
 23 26  1  1
 24 25  2  0
 24 34  1  0
 26 27  1  0
 27 28  2  0
 27 29  1  0
 28 30  1  0
 29 31  2  0
 30 32  2  0
 31 32  1  0
 32 33  1  0
 34 35  1  0
 35 36  1  0
 35 38  1  1
 36 37  2  0
 36 43  1  0
 38 39  1  0
 39 40  1  0
 40 41  1  0
 41 42  1  0
 43 44  1  0
 44 45  1  0
 44 47  1  1
 45 46  2  0
 45 49  1  0
 47 48  1  0
 49 50  1  0
 50 51  1  0
 50 53  1  1
 51 52  2  0
 51 58  1  0
 53 54  1  0
 54 55  1  0
 55 56  1  0
 56 57  1  0
 58 59  1  0
 58 64  1  0
 59 60  1  0
 59 62  1  6
 60 61  2  0
 60 65  1  0
 62 63  1  0
 63 64  1  0
 65 66  1  0
 65 71  1  0
 66 67  1  0
 66 69  1  1
 67 68  2  0
 67 72  1  0
 69 70  1  0
 70 71  1  0
 73 72  1  1
 73 74  1  0
 73 76  1  0
 74 75  2  0
 74 80  1  0
 76 77  1  0
 76 78  1  1
 77 79  1  0
 81 80  1  6
 81 82  1  0
 81 84  1  0
 82 83  2  0
 82 86  1  0
 84 85  1  0
 86 87  1  0
 87 88  1  0
 87 90  1  6
 88 89  2  0
 88 97  1  0
 90 91  1  0
 91 92  2  0
 91 93  1  0
 92 94  1  0
 93 95  2  0
 94 96  2  0
 95 96  1  0
 97 98  1  0
 97103  1  0
 98 99  1  0
 98101  1  6
 99100  2  0
 99104  1  0
101102  1  0
102103  1  0
104105  1  0
105106  1  0
105108  1  6
106107  2  0
108109  1  0
109110  1  0
109111  2  0
 15113  1  0
M  CHG  2  42   1  57   1
M  END
$$$$
