
     RDKit          3D

113120  0  0  0  0  0  0  0  0999 V2000
    0.8401   -6.5989   33.9924 N   0  0  0  0  0  0  0  0  0  0  0  0
   -0.4139   -6.7997   33.5459 C   0  0  2  0  0  0  0  0  0  0  0  0
   -0.6367   -6.7406   32.0783 C   0  0  0  0  0  0  0  0  0  0  0  0
    0.2992   -7.2608   31.3716 O   0  0  0  0  0  0  0  0  0  0  0  0
   -1.7775   -6.1646   31.4928 N   0  0  0  0  0  0  0  0  0  0  0  0
   -3.1388   -6.3163   31.9692 C   0  0  2  0  0  0  0  0  0  0  0  0
   -4.1587   -6.2306   30.9118 C   0  0  0  0  0  0  0  0  0  0  0  0
   -4.2619   -5.1257   30.2894 O   0  0  0  0  0  0  0  0  0  0  0  0
   -3.3777   -5.3527   33.1017 C   0  0  0  0  0  0  0  0  0  0  0  0
   -2.5873   -5.7012   34.3190 C   0  0  0  0  0  0  0  0  0  0  0  0
   -3.4177   -5.4621   35.5711 C   0  0  0  0  0  0  0  0  0  0  0  0
   -4.2822   -4.3353   35.3501 N   0  0  0  0  0  0  0  0  0  0  0  0
   -4.4440   -3.3519   36.3452 C   0  0  0  0  0  0  0  0  0  0  0  0
   -3.3521   -2.8118   37.0439 N   0  0  0  0  0  0  0  0  0  0  0  0
   -5.6571   -2.9306   36.6287 N   0  0  0  0  0  0  0  0  0  0  0  0
   -5.0404   -7.2468   30.5062 N   0  0  0  0  0  0  0  0  0  0  0  0
   -5.6486   -8.2509   31.3647 C   0  0  2  0  0  0  0  0  0  0  0  0
   -6.2122   -7.6246   32.5913 C   0  0  0  0  0  0  0  0  0  0  0  0
   -5.5583   -7.9467   33.6529 O   0  0  0  0  0  0  0  0  0  0  0  0
   -4.5924   -9.2937   31.6526 C   0  0  0  0  0  0  0  0  0  0  0  0
   -5.1151  -10.9771   31.1451 S   0  0  0  0  0  0  0  0  0  0  0  0
   -7.2993   -6.7802   32.7173 N   0  0  0  0  0  0  0  0  0  0  0  0
   -8.6958   -6.9577   32.3517 C   0  0  2  0  0  0  0  0  0  0  0  0
   -9.0824   -8.3812   32.4081 C   0  0  0  0  0  0  0  0  0  0  0  0
   -8.4445   -8.9640   33.3886 O   0  0  0  0  0  0  0  0  0  0  0  0
   -9.0896   -6.2322   31.1184 C   0  0  0  0  0  0  0  0  0  0  0  0
   -8.6575   -6.9154   29.8763 C   0  0  0  0  0  0  0  0  0  0  0  0
   -8.0449   -8.1727   29.9445 C   0  0  0  0  0  0  0  0  0  0  0  0
   -8.7973   -6.3832   28.6153 C   0  0  0  0  0  0  0  0  0  0  0  0
   -7.6060   -8.8464   28.8360 C   0  0  0  0  0  0  0  0  0  0  0  0
   -8.3595   -7.0520   27.4973 C   0  0  0  0  0  0  0  0  0  0  0  0
   -7.7542   -8.2990   27.5853 C   0  0  0  0  0  0  0  0  0  0  0  0
   -7.3135   -8.9769   26.4745 O   0  0  0  0  0  0  0  0  0  0  0  0
   -9.9242   -9.1845   31.6857 N   0  0  0  0  0  0  0  0  0  0  0  0
  -11.3307   -9.4601   31.6391 C   0  0  2  0  0  0  0  0  0  0  0  0
  -11.7217   -9.5870   30.2030 C   0  0  0  0  0  0  0  0  0  0  0  0
  -11.0013   -8.9862   29.3624 O   0  0  0  0  0  0  0  0  0  0  0  0
  -12.2621   -8.7269   32.4934 C   0  0  0  0  0  0  0  0  0  0  0  0
  -13.1676   -9.4137   33.4275 C   0  0  0  0  0  0  0  0  0  0  0  0
  -13.1265   -9.0086   34.8633 C   0  0  0  0  0  0  0  0  0  0  0  0
  -13.1729  -10.1604   35.8263 C   0  0  0  0  0  0  0  0  0  0  0  0
  -13.8354   -9.6904   37.0369 N   0  0  0  0  0  4  0  0  0  0  0  0
  -12.8179  -10.3162   29.7212 N   0  0  0  0  0  0  0  0  0  0  0  0
  -13.2213  -11.6460   30.1731 C   0  0  2  0  0  0  0  0  0  0  0  0
  -12.4550  -12.6831   29.4548 C   0  0  0  0  0  0  0  0  0  0  0  0
  -12.7715  -12.7947   28.2086 O   0  0  0  0  0  0  0  0  0  0  0  0
  -14.6890  -11.8057   29.7538 C   0  0  0  0  0  0  0  0  0  0  0  0
  -14.8311  -12.8078   28.8079 O   0  0  0  0  0  0  0  0  0  0  0  0
  -11.4577  -13.5357   29.9299 N   0  0  0  0  0  0  0  0  0  0  0  0
  -11.6045  -14.6534   30.8707 C   0  0  2  0  0  0  0  0  0  0  0  0
  -11.3919  -15.9192   30.1687 C   0  0  0  0  0  0  0  0  0  0  0  0
  -12.1371  -16.0968   29.1287 O   0  0  0  0  0  0  0  0  0  0  0  0
  -12.7065  -14.4889   31.8389 C   0  0  0  0  0  0  0  0  0  0  0  0
  -12.6097  -15.1148   33.1670 C   0  0  0  0  0  0  0  0  0  0  0  0
  -11.3351  -15.1742   33.9027 C   0  0  0  0  0  0  0  0  0  0  0  0
  -10.0677  -15.0173   33.1231 C   0  0  0  0  0  0  0  0  0  0  0  0
   -8.8385  -15.0551   33.8097 N   0  0  0  0  0  4  0  0  0  0  0  0
  -10.4591  -16.9363   30.5215 N   0  0  0  0  0  0  0  0  0  0  0  0
   -9.1271  -16.7099   31.0621 C   0  0  2  0  0  0  0  0  0  0  0  0
   -8.1891  -17.0622   29.9521 C   0  0  0  0  0  0  0  0  0  0  0  0
   -8.3645  -16.3285   28.9034 O   0  0  0  0  0  0  0  0  0  0  0  0
   -9.1088  -17.6476   32.2212 C   0  0  0  0  0  0  0  0  0  0  0  0
  -10.0845  -18.7628   31.8266 C   0  0  0  0  0  0  0  0  0  0  0  0
  -10.5481  -18.3926   30.4312 C   0  0  0  0  0  0  0  0  0  0  0  0
   -7.2052  -18.0319   29.9135 N   0  0  0  0  0  0  0  0  0  0  0  0
   -6.0580  -18.2008   30.8072 C   0  0  2  0  0  0  0  0  0  0  0  0
   -5.7343  -16.9959   31.5863 C   0  0  0  0  0  0  0  0  0  0  0  0
   -5.8904  -15.9018   30.8908 O   0  0  0  0  0  0  0  0  0  0  0  0
   -4.9332  -18.4086   29.8162 C   0  0  0  0  0  0  0  0  0  0  0  0
   -5.5796  -19.1016   28.6748 C   0  0  0  0  0  0  0  0  0  0  0  0
   -7.0408  -19.1596   28.9682 C   0  0  0  0  0  0  0  0  0  0  0  0
   -5.3082  -16.8105   32.8897 N   0  0  0  0  0  0  0  0  0  0  0  0
   -4.1628  -17.0858   33.6500 C   0  0  2  0  0  0  0  0  0  0  0  0
   -3.4204  -15.9136   34.1809 C   0  0  0  0  0  0  0  0  0  0  0  0
   -3.3835  -15.8623   35.4805 O   0  0  0  0  0  0  0  0  0  0  0  0
   -3.1568  -18.0961   33.2740 C   0  0  2  0  0  0  0  0  0  0  0  0
   -3.6489  -19.5121   33.1551 C   0  0  0  0  0  0  0  0  0  0  0  0
   -2.0769  -18.1938   34.3951 C   0  0  0  0  0  0  0  0  0  0  0  0
   -5.1792  -19.4851   33.2212 C   0  0  0  0  0  0  0  0  0  0  0  0
   -2.7687  -14.8787   33.5388 N   0  0  0  0  0  0  0  0  0  0  0  0
   -2.6440  -14.5164   32.1692 C   0  0  2  0  0  0  0  0  0  0  0  0
   -1.4342  -14.9599   31.4723 C   0  0  0  0  0  0  0  0  0  0  0  0
   -1.6468  -15.9401   30.6309 O   0  0  0  0  0  0  0  0  0  0  0  0
   -2.7977  -12.9775   32.0675 C   0  0  0  0  0  0  0  0  0  0  0  0
   -4.4642  -12.4569   32.4892 S   0  0  0  0  0  0  0  0  0  0  0  0
   -0.1055  -14.5106   31.5593 N   0  0  0  0  0  0  0  0  0  0  0  0
    0.6356  -14.0417   32.7030 C   0  0  2  0  0  0  0  0  0  0  0  0
    2.0097  -13.6405   32.2341 C   0  0  0  0  0  0  0  0  0  0  0  0
    2.2809  -13.8121   30.9885 O   0  0  0  0  0  0  0  0  0  0  0  0
    0.7989  -15.0753   33.7682 C   0  0  0  0  0  0  0  0  0  0  0  0
   -0.4013  -15.3346   34.6124 C   0  0  0  0  0  0  0  0  0  0  0  0
   -1.1678  -14.2740   35.0630 C   0  0  0  0  0  0  0  0  0  0  0  0
   -0.7747  -16.6028   34.9742 C   0  0  0  0  0  0  0  0  0  0  0  0
   -2.2633  -14.5017   35.8475 C   0  0  0  0  0  0  0  0  0  0  0  0
   -1.8836  -16.8025   35.7664 C   0  0  0  0  0  0  0  0  0  0  0  0
   -2.6606  -15.7628   36.2267 C   0  0  0  0  0  0  0  0  0  0  0  0
    3.0383  -13.0911   33.0164 N   0  0  0  0  0  0  0  0  0  0  0  0
    2.7950  -12.0516   34.0394 C   0  0  2  0  0  0  0  0  0  0  0  0
    3.3758  -10.7442   33.6410 C   0  0  0  0  0  0  0  0  0  0  0  0
    4.6400  -10.7715   33.4098 O   0  0  0  0  0  0  0  0  0  0  0  0
    3.6411  -12.6565   35.1876 C   0  0  0  0  0  0  0  0  0  0  0  0
    4.8575  -13.1862   34.4834 C   0  0  0  0  0  0  0  0  0  0  0  0
    4.4512  -13.3285   33.0563 C   0  0  0  0  0  0  0  0  0  0  0  0
    2.7068   -9.5222   33.4945 N   0  0  0  0  0  0  0  0  0  0  0  0
    1.8979   -8.8032   34.4400 C   0  0  2  0  0  0  0  0  0  0  0  0
    2.0095   -7.3172   34.1258 C   0  0  0  0  0  0  0  0  0  0  0  0
    3.1845   -6.8834   34.0156 O   0  0  0  0  0  0  0  0  0  0  0  0
    2.2554   -8.9311   35.8697 C   0  0  0  0  0  0  0  0  0  0  0  0
    1.0694   -9.1544   36.7144 C   0  0  0  0  0  0  0  0  0  0  0  0
   -0.2325   -9.1093   36.1846 O   0  0  0  0  0  0  0  0  0  0  0  0
    1.1831   -9.3940   37.9413 O   0  0  0  0  0  0  0  0  0  0  0  0
   -0.0586   -5.4855   34.0595 O   0  0  0  0  0  0  0  0  0  0  0  0
   -5.8707   -2.4079   37.4895 H   0  0  0  0  0  0  0  0  0  0  0  0
  1  2  1  0
  1106  1  0
  1112  1  0
  2  3  1  0
  2112  1  1
  3  4  2  0
  3  5  1  0
  5  6  1  0
  6  7  1  0
  6  9  1  1
  7  8  2  0
  7 16  1  0
  9 10  1  0
 10 11  1  0
 11 12  1  0
 12 13  1  0
 13 14  1  0
 13 15  2  0
 17 16  1  6
 17 18  1  0
 17 20  1  0
 18 19  2  0
 18 22  1  0
 20 21  1  0
 21 85  1  0
 22 23  1  0
 23 24  1  0
 23 26  1  6
 24 25  2  0
 24 34  1  0
 26 27  1  0
 27 28  2  0
 27 29  1  0
 28 30  1  0
 29 31  2  0
 30 32  2  0
 31 32  1  0
 32 33  1  0
 34 35  1  0
 35 36  1  0
 35 38  1  6
 36 37  2  0
 36 43  1  0
 38 39  1  0
 39 40  1  0
 40 41  1  0
 41 42  1  0
 43 44  1  0
 44 45  1  0
 44 47  1  6
 45 46  2  0
 45 49  1  0
 47 48  1  0
 49 50  1  0
 50 51  1  0
 50 53  1  6
 51 52  2  0
 51 58  1  0
 53 54  1  0
 54 55  1  0
 55 56  1  0
 56 57  1  0
 58 59  1  0
 58 64  1  0
 59 60  1  0
 59 62  1  1
 60 61  2  0
 60 65  1  0
 62 63  1  0
 63 64  1  0
 65 66  1  0
 65 71  1  0
 66 67  1  0
 66 69  1  6
 67 68  2  0
 67 72  1  0
 69 70  1  0
 70 71  1  0
 73 72  1  6
 73 74  1  0
 73 76  1  0
 74 75  2  0
 74 80  1  0
 76 77  1  0
 76 78  1  1
 77 79  1  0
 81 80  1  1
 81 82  1  0
 81 84  1  0
 82 83  2  0
 82 86  1  0
 84 85  1  0
 86 87  1  0
 87 88  1  0
 87 90  1  1
 88 89  2  0
 88 97  1  0
 90 91  1  0
 91 92  2  0
 91 93  1  0
 92 94  1  0
 93 95  2  0
 94 96  2  0
 95 96  1  0
 97 98  1  0
 97103  1  0
 98 99  1  0
 98101  1  1
 99100  2  0
 99104  1  0
101102  1  0
102103  1  0
104105  1  0
105106  1  0
105108  1  1
106107  2  0
108109  1  0
109110  1  0
109111  2  0
 15113  1  0
M  CHG  2  42   1  57   1
M  END
$$$$
