
     RDKit          3D

113120  0  0  0  0  0  0  0  0999 V2000
    2.1146   -9.4227   32.5784 N   0  0  0  0  0  0  0  0  0  0  0  0
    0.7764   -9.2894   32.6396 C   0  0  2  0  0  0  0  0  0  0  0  0
    0.0945   -8.6756   31.4711 C   0  0  0  0  0  0  0  0  0  0  0  0
    0.5714   -9.0176   30.3303 O   0  0  0  0  0  0  0  0  0  0  0  0
   -0.9898   -7.7886   31.5878 N   0  0  0  0  0  0  0  0  0  0  0  0
   -2.1013   -7.9305   32.5083 C   0  0  2  0  0  0  0  0  0  0  0  0
   -3.3603   -7.3408   32.0259 C   0  0  0  0  0  0  0  0  0  0  0  0
   -3.3819   -6.0819   31.8424 O   0  0  0  0  0  0  0  0  0  0  0  0
   -1.6899   -7.4204   33.8643 C   0  0  0  0  0  0  0  0  0  0  0  0
   -0.7835   -6.2379   33.7743 C   0  0  0  0  0  0  0  0  0  0  0  0
   -1.3601   -5.2053   32.8174 C   0  0  0  0  0  0  0  0  0  0  0  0
   -0.6334   -3.9741   32.9657 N   0  0  0  0  0  0  0  0  0  0  0  0
   -0.8947   -2.8824   32.1151 C   0  0  0  0  0  0  0  0  0  0  0  0
   -0.7526   -2.9732   30.7209 N   0  0  0  0  0  0  0  0  0  0  0  0
   -1.2808   -1.7431   32.6464 N   0  0  0  0  0  0  0  0  0  0  0  0
   -4.5554   -8.0222   31.7392 N   0  0  0  0  0  0  0  0  0  0  0  0
   -5.0731   -9.1842   32.4441 C   0  0  2  0  0  0  0  0  0  0  0  0
   -5.0103   -8.9789   33.9166 C   0  0  0  0  0  0  0  0  0  0  0  0
   -4.1418   -9.7428   34.4830 O   0  0  0  0  0  0  0  0  0  0  0  0
   -4.2850  -10.3841   31.9697 C   0  0  0  0  0  0  0  0  0  0  0  0
   -5.3594  -11.6898   31.2588 S   0  0  0  0  0  0  0  0  0  0  0  0
   -5.7373   -8.1083   34.7066 N   0  0  0  0  0  0  0  0  0  0  0  0
   -7.1714   -7.9649   34.9023 C   0  0  2  0  0  0  0  0  0  0  0  0
   -7.8659   -9.2518   34.7007 C   0  0  0  0  0  0  0  0  0  0  0  0
   -7.1058  -10.2250   35.1286 O   0  0  0  0  0  0  0  0  0  0  0  0
   -7.7592   -6.7989   34.1969 C   0  0  0  0  0  0  0  0  0  0  0  0
   -6.7941   -5.6926   33.9936 C   0  0  0  0  0  0  0  0  0  0  0  0
   -6.3393   -4.9489   35.0894 C   0  0  0  0  0  0  0  0  0  0  0  0
   -6.3069   -5.3108   32.7649 C   0  0  0  0  0  0  0  0  0  0  0  0
   -5.4637   -3.9032   34.9656 C   0  0  0  0  0  0  0  0  0  0  0  0
   -5.4282   -4.2626   32.6312 C   0  0  0  0  0  0  0  0  0  0  0  0
   -4.9882   -3.5366   33.7306 C   0  0  0  0  0  0  0  0  0  0  0  0
   -4.1094   -2.4876   33.6088 O   0  0  0  0  0  0  0  0  0  0  0  0
   -9.0773   -9.6268   34.1835 N   0  0  0  0  0  0  0  0  0  0  0  0
  -10.4378   -9.6882   34.6324 C   0  0  2  0  0  0  0  0  0  0  0  0
  -11.3090   -9.2366   33.5061 C   0  0  0  0  0  0  0  0  0  0  0  0
  -10.7865   -8.4676   32.6562 O   0  0  0  0  0  0  0  0  0  0  0  0
  -10.8066   -9.2033   35.9606 C   0  0  0  0  0  0  0  0  0  0  0  0
  -11.7365   -8.0789   36.1486 C   0  0  0  0  0  0  0  0  0  0  0  0
  -12.0950   -7.2630   34.9515 C   0  0  0  0  0  0  0  0  0  0  0  0
  -12.9378   -6.0589   35.2609 C   0  0  0  0  0  0  0  0  0  0  0  0
  -13.2827   -5.4299   33.9918 N   0  0  0  0  0  4  0  0  0  0  0  0
  -12.6509   -9.5983   33.3219 N   0  0  0  0  0  0  0  0  0  0  0  0
  -13.2033  -10.9397   33.4977 C   0  0  2  0  0  0  0  0  0  0  0  0
  -13.0159  -11.7337   32.2676 C   0  0  0  0  0  0  0  0  0  0  0  0
  -13.7515  -11.3461   31.2806 O   0  0  0  0  0  0  0  0  0  0  0  0
  -14.7155  -10.7514   33.6806 C   0  0  0  0  0  0  0  0  0  0  0  0
  -15.4020  -11.0746   32.5215 O   0  0  0  0  0  0  0  0  0  0  0  0
  -12.1694  -12.8183   32.0340 N   0  0  0  0  0  0  0  0  0  0  0  0
  -12.2703  -14.1729   32.5915 C   0  0  2  0  0  0  0  0  0  0  0  0
  -12.6375  -15.1146   31.5339 C   0  0  0  0  0  0  0  0  0  0  0  0
  -13.7088  -14.8088   30.8804 O   0  0  0  0  0  0  0  0  0  0  0  0
  -12.9003  -14.2333   33.9250 C   0  0  0  0  0  0  0  0  0  0  0  0
  -12.3934  -15.1824   34.9286 C   0  0  0  0  0  0  0  0  0  0  0  0
  -10.9967  -15.6499   34.9146 C   0  0  0  0  0  0  0  0  0  0  0  0
  -10.1051  -15.2285   36.0397 C   0  0  0  0  0  0  0  0  0  0  0  0
   -8.7750  -15.6912   36.0626 N   0  0  0  0  0  4  0  0  0  0  0  0
  -11.9327  -16.2988   31.1731 N   0  0  0  0  0  0  0  0  0  0  0  0
  -10.4855  -16.4523   31.1695 C   0  0  2  0  0  0  0  0  0  0  0  0
  -10.0999  -16.4935   29.7253 C   0  0  0  0  0  0  0  0  0  0  0  0
  -10.4254  -15.4142   29.0945 O   0  0  0  0  0  0  0  0  0  0  0  0
  -10.3172  -17.7404   31.9015 C   0  0  0  0  0  0  0  0  0  0  0  0
  -11.6190  -18.5054   31.6341 C   0  0  0  0  0  0  0  0  0  0  0  0
  -12.4153  -17.6002   30.7144 C   0  0  0  0  0  0  0  0  0  0  0  0
   -9.4688  -17.4986   29.0172 N   0  0  0  0  0  0  0  0  0  0  0  0
   -8.1709  -18.1220   29.2822 C   0  0  2  0  0  0  0  0  0  0  0  0
   -7.3074  -17.3315   30.1727 C   0  0  0  0  0  0  0  0  0  0  0  0
   -7.4042  -16.0496   29.9440 O   0  0  0  0  0  0  0  0  0  0  0  0
   -7.5390  -18.0962   27.9073 C   0  0  0  0  0  0  0  0  0  0  0  0
   -8.6865  -18.2421   26.9785 C   0  0  0  0  0  0  0  0  0  0  0  0
   -9.9265  -18.2188   27.8072 C   0  0  0  0  0  0  0  0  0  0  0  0
   -6.4342  -17.6855   31.1863 N   0  0  0  0  0  0  0  0  0  0  0  0
   -5.2101  -18.3586   31.3056 C   0  0  2  0  0  0  0  0  0  0  0  0
   -4.0592  -17.5611   31.8020 C   0  0  0  0  0  0  0  0  0  0  0  0
   -3.5743  -17.9887   32.9311 O   0  0  0  0  0  0  0  0  0  0  0  0
   -4.6832  -19.2818   30.2838 C   0  0  2  0  0  0  0  0  0  0  0  0
   -4.3314  -20.6655   30.7561 C   0  0  0  0  0  0  0  0  0  0  0  0
   -3.3230  -18.7387   29.7474 C   0  0  0  0  0  0  0  0  0  0  0  0
   -4.1244  -20.6061   32.2728 C   0  0  0  0  0  0  0  0  0  0  0  0
   -3.4212  -16.4544   31.2764 N   0  0  0  0  0  0  0  0  0  0  0  0
   -3.6778  -15.6396   30.1393 C   0  0  2  0  0  0  0  0  0  0  0  0
   -2.9298  -15.9486   28.9183 C   0  0  0  0  0  0  0  0  0  0  0  0
   -3.6564  -16.5229   27.9929 O   0  0  0  0  0  0  0  0  0  0  0  0
   -3.4587  -14.1620   30.5527 C   0  0  0  0  0  0  0  0  0  0  0  0
   -4.6937  -13.6248   31.7412 S   0  0  0  0  0  0  0  0  0  0  0  0
   -1.5818  -15.7316   28.5855 N   0  0  0  0  0  0  0  0  0  0  0  0
   -0.4047  -15.8054   29.4140 C   0  0  2  0  0  0  0  0  0  0  0  0
    0.7845  -15.4373   28.5661 C   0  0  0  0  0  0  0  0  0  0  0  0
    0.5663  -15.1790   27.3251 O   0  0  0  0  0  0  0  0  0  0  0  0
   -0.1612  -17.1662   29.9784 C   0  0  0  0  0  0  0  0  0  0  0  0
   -0.7916  -18.2981   29.2425 C   0  0  0  0  0  0  0  0  0  0  0  0
   -1.8720  -18.0614   28.4106 C   0  0  0  0  0  0  0  0  0  0  0  0
   -0.3418  -19.5867   29.3684 C   0  0  0  0  0  0  0  0  0  0  0  0
   -2.4639  -19.0951   27.7409 C   0  0  0  0  0  0  0  0  0  0  0  0
   -0.9581  -20.6093   28.6816 C   0  0  0  0  0  0  0  0  0  0  0  0
   -2.0345  -20.3975   27.8490 C   0  0  0  0  0  0  0  0  0  0  0  0
    2.1207  -15.3420   28.9873 N   0  0  0  0  0  0  0  0  0  0  0  0
    2.5105  -14.7216   30.2716 C   0  0  2  0  0  0  0  0  0  0  0  0
    3.2360  -13.4425   30.0643 C   0  0  0  0  0  0  0  0  0  0  0  0
    4.2966  -13.5425   29.3450 O   0  0  0  0  0  0  0  0  0  0  0  0
    3.5102  -15.8020   30.7548 C   0  0  0  0  0  0  0  0  0  0  0  0
    4.2398  -16.1889   29.5002 C   0  0  0  0  0  0  0  0  0  0  0  0
    3.3538  -15.7528   28.3835 C   0  0  0  0  0  0  0  0  0  0  0  0
    2.8922  -12.1768   30.5565 N   0  0  0  0  0  0  0  0  0  0  0  0
    2.6616  -11.7535   31.9103 C   0  0  2  0  0  0  0  0  0  0  0  0
    3.0359  -10.2811   32.0167 C   0  0  0  0  0  0  0  0  0  0  0  0
    4.1741   -9.9878   31.5703 O   0  0  0  0  0  0  0  0  0  0  0  0
    3.4352  -12.4340   32.9718 C   0  0  0  0  0  0  0  0  0  0  0  0
    3.5882  -11.5878   34.1679 C   0  0  0  0  0  0  0  0  0  0  0  0
    2.9161  -11.8793   35.3683 O   0  0  0  0  0  0  0  0  0  0  0  0
    4.3280  -10.5739   34.1544 O   0  0  0  0  0  0  0  0  0  0  0  0
    1.6069   -8.3059   33.3178 O   0  0  0  0  0  0  0  0  0  0  0  0
   -1.2847   -0.8616   32.1147 H   0  0  0  0  0  0  0  0  0  0  0  0
  1  2  1  0
  1106  1  0
  1112  1  0
  2  3  1  0
  2112  1  1
  3  4  2  0
  3  5  1  0
  5  6  1  0
  6  7  1  0
  6  9  1  1
  7  8  2  0
  7 16  1  0
  9 10  1  0
 10 11  1  0
 11 12  1  0
 12 13  1  0
 13 14  1  0
 13 15  2  0
 17 16  1  6
 17 18  1  0
 17 20  1  0
 18 19  2  0
 18 22  1  0
 20 21  1  0
 21 85  1  0
 22 23  1  0
 23 24  1  0
 23 26  1  6
 24 25  2  0
 24 34  1  0
 26 27  1  0
 27 28  2  0
 27 29  1  0
 28 30  1  0
 29 31  2  0
 30 32  2  0
 31 32  1  0
 32 33  1  0
 34 35  1  0
 35 36  1  0
 35 38  1  1
 36 37  2  0
 36 43  1  0
 38 39  1  0
 39 40  1  0
 40 41  1  0
 41 42  1  0
 43 44  1  0
 44 45  1  0
 44 47  1  6
 45 46  2  0
 45 49  1  0
 47 48  1  0
 49 50  1  0
 50 51  1  0
 50 53  1  1
 51 52  2  0
 51 58  1  0
 53 54  1  0
 54 55  1  0
 55 56  1  0
 56 57  1  0
 58 59  1  0
 58 64  1  0
 59 60  1  0
 59 62  1  1
 60 61  2  0
 60 65  1  0
 62 63  1  0
 63 64  1  0
 65 66  1  0
 65 71  1  0
 66 67  1  0
 66 69  1  6
 67 68  2  0
 67 72  1  0
 69 70  1  0
 70 71  1  0
 73 72  1  6
 73 74  1  0
 73 76  1  0
 74 75  2  0
 74 80  1  0
 76 77  1  0
 76 78  1  1
 77 79  1  0
 81 80  1  1
 81 82  1  0
 81 84  1  0
 82 83  2  0
 82 86  1  0
 84 85  1  0
 86 87  1  0
 87 88  1  0
 87 90  1  6
 88 89  2  0
 88 97  1  0
 90 91  1  0
 91 92  2  0
 91 93  1  0
 92 94  1  0
 93 95  2  0
 94 96  2  0
 95 96  1  0
 97 98  1  0
 97103  1  0
 98 99  1  0
 98101  1  6
 99100  2  0
 99104  1  0
101102  1  0
102103  1  0
104105  1  0
105106  1  0
105108  1  1
106107  2  0
108109  1  0
109110  1  0
109111  2  0
 15113  1  0
M  CHG  2  42   1  57   1
M  END
$$$$
