
     RDKit          3D

113120  0  0  0  0  0  0  0  0999 V2000
   -7.0347  -20.9255   34.3385 N   0  0  0  0  0  0  0  0  0  0  0  0
   -7.1571  -19.5908   34.4654 C   0  0  2  0  0  0  0  0  0  0  0  0
   -6.1405  -18.8843   35.2865 C   0  0  0  0  0  0  0  0  0  0  0  0
   -4.9434  -19.3268   35.1569 O   0  0  0  0  0  0  0  0  0  0  0  0
   -6.4482  -17.8128   36.1428 N   0  0  0  0  0  0  0  0  0  0  0  0
   -7.3583  -16.7249   35.8405 C   0  0  2  0  0  0  0  0  0  0  0  0
   -7.0278  -15.4596   36.5152 C   0  0  0  0  0  0  0  0  0  0  0  0
   -7.0786  -15.4462   37.7866 O   0  0  0  0  0  0  0  0  0  0  0  0
   -8.7726  -17.1779   36.0912 C   0  0  0  0  0  0  0  0  0  0  0  0
   -9.1664  -18.3195   35.2139 C   0  0  0  0  0  0  0  0  0  0  0  0
   -7.9392  -18.9070   34.5332 C   0  0  0  0  0  0  0  0  0  0  0  0
   -7.1283  -19.5659   35.5201 N   0  0  0  0  0  0  0  0  0  0  0  0
   -7.2619  -20.9493   35.7478 C   0  0  0  0  0  0  0  0  0  0  0  0
   -8.3431  -21.4855   36.4659 N   0  0  0  0  0  0  0  0  0  0  0  0
   -6.3421  -21.7614   35.2745 N   0  0  0  0  0  0  0  0  0  0  0  0
   -6.6552  -14.2503   35.9043 N   0  0  0  0  0  0  0  0  0  0  0  0
   -7.1499  -13.7396   34.6355 C   0  0  2  0  0  0  0  0  0  0  0  0
   -8.6327  -13.8441   34.5671 C   0  0  0  0  0  0  0  0  0  0  0  0
   -9.0249  -14.7195   33.7078 O   0  0  0  0  0  0  0  0  0  0  0  0
   -6.4417  -14.5023   33.5388 C   0  0  0  0  0  0  0  0  0  0  0  0
   -5.5346  -13.3957   32.3911 S   0  0  0  0  0  0  0  0  0  0  0  0
   -9.5890  -13.1476   35.2820 N   0  0  0  0  0  0  0  0  0  0  0  0
   -9.8482  -11.7209   35.3947 C   0  0  2  0  0  0  0  0  0  0  0  0
   -9.4342  -11.0079   34.1703 C   0  0  0  0  0  0  0  0  0  0  0  0
   -9.6550  -11.7691   33.1311 O   0  0  0  0  0  0  0  0  0  0  0  0
   -9.3850  -11.1265   36.6733 C   0  0  0  0  0  0  0  0  0  0  0  0
   -7.9321  -10.8346   36.6887 C   0  0  0  0  0  0  0  0  0  0  0  0
   -7.0994  -11.3677   35.6972 C   0  0  0  0  0  0  0  0  0  0  0  0
   -7.3099  -10.0691   37.6477 C   0  0  0  0  0  0  0  0  0  0  0  0
   -5.7475  -11.1513   35.6670 C   0  0  0  0  0  0  0  0  0  0  0  0
   -5.9538   -9.8469   37.6255 C   0  0  0  0  0  0  0  0  0  0  0  0
   -5.1441  -10.3843   36.6332 C   0  0  0  0  0  0  0  0  0  0  0  0
   -3.7877  -10.1681   36.6007 O   0  0  0  0  0  0  0  0  0  0  0  0
   -8.8916   -9.7792   33.9028 N   0  0  0  0  0  0  0  0  0  0  0  0
   -9.3600   -8.4307   33.7673 C   0  0  2  0  0  0  0  0  0  0  0  0
   -8.3605   -7.5343   34.4223 C   0  0  0  0  0  0  0  0  0  0  0  0
   -7.6513   -8.0418   35.3312 O   0  0  0  0  0  0  0  0  0  0  0  0
  -10.7644   -8.1028   34.0025 C   0  0  0  0  0  0  0  0  0  0  0  0
  -11.2869   -7.8390   35.3522 C   0  0  0  0  0  0  0  0  0  0  0  0
  -11.6994   -6.4426   35.6796 C   0  0  0  0  0  0  0  0  0  0  0  0
  -11.6730   -6.1243   37.1472 C   0  0  0  0  0  0  0  0  0  0  0  0
  -12.3922   -4.8701   37.3346 N   0  0  0  0  0  4  0  0  0  0  0  0
   -8.1513   -6.1843   34.1075 N   0  0  0  0  0  0  0  0  0  0  0  0
   -8.0941   -5.6229   32.7596 C   0  0  2  0  0  0  0  0  0  0  0  0
   -6.7346   -5.7690   32.2035 C   0  0  0  0  0  0  0  0  0  0  0  0
   -5.8565   -5.0112   32.7693 O   0  0  0  0  0  0  0  0  0  0  0  0
   -8.3511   -4.1182   32.9191 C   0  0  0  0  0  0  0  0  0  0  0  0
   -8.3473   -3.4787   31.6901 O   0  0  0  0  0  0  0  0  0  0  0  0
   -6.2826   -6.5975   31.1756 N   0  0  0  0  0  0  0  0  0  0  0  0
   -6.5854   -6.4976   29.7423 C   0  0  2  0  0  0  0  0  0  0  0  0
   -5.3841   -6.0925   29.0123 C   0  0  0  0  0  0  0  0  0  0  0  0
   -4.8282   -5.0071   29.4383 O   0  0  0  0  0  0  0  0  0  0  0  0
   -7.9026   -5.9031   29.4419 C   0  0  0  0  0  0  0  0  0  0  0  0
   -9.1244   -6.6972   29.6455 C   0  0  0  0  0  0  0  0  0  0  0  0
   -9.0774   -8.1603   29.8090 C   0  0  0  0  0  0  0  0  0  0  0  0
   -9.7919   -9.0018   28.7991 C   0  0  0  0  0  0  0  0  0  0  0  0
  -10.1557   -8.4231   27.5676 N   0  0  0  0  0  4  0  0  0  0  0  0
   -4.7928   -6.7750   27.9106 N   0  0  0  0  0  0  0  0  0  0  0  0
   -4.7202   -8.2198   27.7527 C   0  0  2  0  0  0  0  0  0  0  0  0
   -3.2825   -8.5660   27.9748 C   0  0  0  0  0  0  0  0  0  0  0  0
   -2.8694   -8.2349   29.1532 O   0  0  0  0  0  0  0  0  0  0  0  0
   -5.1990   -8.3944   26.3515 C   0  0  0  0  0  0  0  0  0  0  0  0
   -4.8330   -7.0780   25.6553 C   0  0  0  0  0  0  0  0  0  0  0  0
   -4.1175   -6.2667   26.7179 C   0  0  0  0  0  0  0  0  0  0  0  0
   -2.3848   -9.1674   27.1132 N   0  0  0  0  0  0  0  0  0  0  0  0
   -2.4944  -10.4655   26.4450 C   0  0  2  0  0  0  0  0  0  0  0  0
   -3.4897  -11.3608   27.0543 C   0  0  0  0  0  0  0  0  0  0  0  0
   -3.5023  -11.2711   28.3569 O   0  0  0  0  0  0  0  0  0  0  0  0
   -1.1301  -11.0605   26.7190 C   0  0  0  0  0  0  0  0  0  0  0  0
   -0.2231   -9.8869   26.7518 C   0  0  0  0  0  0  0  0  0  0  0  0
   -1.0769   -8.6700   26.6294 C   0  0  0  0  0  0  0  0  0  0  0  0
   -4.3962  -12.2571   26.5160 N   0  0  0  0  0  0  0  0  0  0  0  0
   -4.3557  -13.4769   25.8259 C   0  0  2  0  0  0  0  0  0  0  0  0
   -4.9568  -14.6489   26.5130 C   0  0  0  0  0  0  0  0  0  0  0  0
   -5.9744  -15.1596   25.8831 O   0  0  0  0  0  0  0  0  0  0  0  0
   -3.1676  -13.9666   25.1029 C   0  0  2  0  0  0  0  0  0  0  0  0
   -2.9241  -15.4498   25.1516 C   0  0  0  0  0  0  0  0  0  0  0  0
   -1.8818  -13.3790   25.7618 C   0  0  0  0  0  0  0  0  0  0  0  0
   -2.0047  -15.8139   23.9816 C   0  0  0  0  0  0  0  0  0  0  0  0
   -4.6248  -15.2841   27.6938 N   0  0  0  0  0  0  0  0  0  0  0  0
   -3.6639  -15.0055   28.7046 C   0  0  2  0  0  0  0  0  0  0  0  0
   -2.3862  -15.7172   28.6206 C   0  0  0  0  0  0  0  0  0  0  0  0
   -1.3923  -14.9601   28.2295 O   0  0  0  0  0  0  0  0  0  0  0  0
   -4.3344  -15.2509   30.0802 C   0  0  0  0  0  0  0  0  0  0  0  0
   -5.6356  -14.0539   30.3970 S   0  0  0  0  0  0  0  0  0  0  0  0
   -2.0608  -17.0579   28.8878 N   0  0  0  0  0  0  0  0  0  0  0  0
   -2.8280  -18.2560   28.6572 C   0  0  2  0  0  0  0  0  0  0  0  0
   -2.0285  -19.4258   29.1681 C   0  0  0  0  0  0  0  0  0  0  0  0
   -0.8625  -19.1770   29.6507 O   0  0  0  0  0  0  0  0  0  0  0  0
   -3.1267  -18.5004   27.2147 C   0  0  0  0  0  0  0  0  0  0  0  0
   -1.9935  -18.2886   26.2708 C   0  0  0  0  0  0  0  0  0  0  0  0
   -1.7940  -17.0420   25.7037 C   0  0  0  0  0  0  0  0  0  0  0  0
   -1.1340  -19.3002   25.9289 C   0  0  0  0  0  0  0  0  0  0  0  0
   -0.7644  -16.8417   24.8279 C   0  0  0  0  0  0  0  0  0  0  0  0
   -0.1050  -19.0696   25.0429 C   0  0  0  0  0  0  0  0  0  0  0  0
    0.1123  -17.8380   24.4662 C   0  0  0  0  0  0  0  0  0  0  0  0
   -2.4221  -20.7737   29.1776 N   0  0  0  0  0  0  0  0  0  0  0  0
   -3.7867  -21.2043   29.5501 C   0  0  2  0  0  0  0  0  0  0  0  0
   -3.7966  -21.9372   30.8417 C   0  0  0  0  0  0  0  0  0  0  0  0
   -3.0413  -22.9770   30.8696 O   0  0  0  0  0  0  0  0  0  0  0  0
   -4.0355  -22.2054   28.3942 C   0  0  0  0  0  0  0  0  0  0  0  0
   -2.7110  -22.8969   28.2400 C   0  0  0  0  0  0  0  0  0  0  0  0
   -1.7186  -21.9859   28.8780 C   0  0  0  0  0  0  0  0  0  0  0  0
   -4.5216  -21.6199   31.9976 N   0  0  0  0  0  0  0  0  0  0  0  0
   -5.9361  -21.4302   32.1668 C   0  0  2  0  0  0  0  0  0  0  0  0
   -6.2995  -21.8224   33.5928 C   0  0  0  0  0  0  0  0  0  0  0  0
   -5.8823  -22.9513   33.9569 O   0  0  0  0  0  0  0  0  0  0  0  0
   -6.8327  -22.2249   31.2992 C   0  0  0  0  0  0  0  0  0  0  0  0
   -7.0135  -23.5962   31.8061 C   0  0  0  0  0  0  0  0  0  0  0  0
   -8.0543  -24.4217   31.3450 O   0  0  0  0  0  0  0  0  0  0  0  0
   -6.2395  -24.0751   32.6706 O   0  0  0  0  0  0  0  0  0  0  0  0
   -7.9802  -20.4495   35.3035 O   0  0  0  0  0  0  0  0  0  0  0  0
   -5.3961  -21.4376   35.0292 H   0  0  0  0  0  0  0  0  0  0  0  0
  1  2  1  0
  1106  1  0
  1112  1  0
  2  3  1  0
  2112  1  1
  3  4  2  0
  3  5  1  0
  5  6  1  0
  6  7  1  0
  6  9  1  1
  7  8  2  0
  7 16  1  0
  9 10  1  0
 10 11  1  0
 11 12  1  0
 12 13  1  0
 13 14  1  0
 13 15  2  0
 17 16  1  1
 17 18  1  0
 17 20  1  0
 18 19  2  0
 18 22  1  0
 20 21  1  0
 21 85  1  0
 22 23  1  0
 23 24  1  0
 23 26  1  1
 24 25  2  0
 24 34  1  0
 26 27  1  0
 27 28  2  0
 27 29  1  0
 28 30  1  0
 29 31  2  0
 30 32  2  0
 31 32  1  0
 32 33  1  0
 34 35  1  0
 35 36  1  0
 35 38  1  1
 36 37  2  0
 36 43  1  0
 38 39  1  0
 39 40  1  0
 40 41  1  0
 41 42  1  0
 43 44  1  0
 44 45  1  0
 44 47  1  1
 45 46  2  0
 45 49  1  0
 47 48  1  0
 49 50  1  0
 50 51  1  0
 50 53  1  1
 51 52  2  0
 51 58  1  0
 53 54  1  0
 54 55  1  0
 55 56  1  0
 56 57  1  0
 58 59  1  0
 58 64  1  0
 59 60  1  0
 59 62  1  6
 60 61  2  0
 60 65  1  0
 62 63  1  0
 63 64  1  0
 65 66  1  0
 65 71  1  0
 66 67  1  0
 66 69  1  1
 67 68  2  0
 67 72  1  0
 69 70  1  0
 70 71  1  0
 73 72  1  1
 73 74  1  0
 73 76  1  0
 74 75  2  0
 74 80  1  0
 76 77  1  0
 76 78  1  1
 77 79  1  0
 81 80  1  6
 81 82  1  0
 81 84  1  0
 82 83  2  0
 82 86  1  0
 84 85  1  0
 86 87  1  0
 87 88  1  0
 87 90  1  6
 88 89  2  0
 88 97  1  0
 90 91  1  0
 91 92  2  0
 91 93  1  0
 92 94  1  0
 93 95  2  0
 94 96  2  0
 95 96  1  0
 97 98  1  0
 97103  1  0
 98 99  1  0
 98101  1  6
 99100  2  0
 99104  1  0
101102  1  0
102103  1  0
104105  1  0
105106  1  0
105108  1  6
106107  2  0
108109  1  0
109110  1  0
109111  2  0
 15113  1  0
M  CHG  2  42   1  57   1
M  END
$$$$
