
     RDKit          3D

113120  0  0  0  0  0  0  0  0999 V2000
   -1.7951   -3.7228   29.0750 N   0  0  0  0  0  0  0  0  0  0  0  0
   -2.8340   -4.5483   29.3019 C   0  0  2  0  0  0  0  0  0  0  0  0
   -3.1796   -5.5241   28.2365 C   0  0  0  0  0  0  0  0  0  0  0  0
   -2.1717   -6.0446   27.6374 O   0  0  0  0  0  0  0  0  0  0  0  0
   -4.5014   -5.8631   27.8987 N   0  0  0  0  0  0  0  0  0  0  0  0
   -5.5807   -6.0933   28.8395 C   0  0  2  0  0  0  0  0  0  0  0  0
   -6.6022   -7.0391   28.3627 C   0  0  0  0  0  0  0  0  0  0  0  0
   -7.2712   -6.7048   27.3332 O   0  0  0  0  0  0  0  0  0  0  0  0
   -6.1545   -4.7687   29.2691 C   0  0  0  0  0  0  0  0  0  0  0  0
   -6.9603   -4.1234   28.1910 C   0  0  0  0  0  0  0  0  0  0  0  0
   -6.5348   -4.6514   26.8291 C   0  0  0  0  0  0  0  0  0  0  0  0
   -5.4366   -5.5620   27.0036 N   0  0  0  0  0  0  0  0  0  0  0  0
   -5.3193   -6.7055   26.1897 C   0  0  0  0  0  0  0  0  0  0  0  0
   -5.3061   -6.6242   24.7878 N   0  0  0  0  0  0  0  0  0  0  0  0
   -5.2225   -7.8847   26.7635 N   0  0  0  0  0  0  0  0  0  0  0  0
   -6.9233   -8.2871   28.9231 N   0  0  0  0  0  0  0  0  0  0  0  0
   -6.9054   -8.6247   30.3377 C   0  0  2  0  0  0  0  0  0  0  0  0
   -7.5948   -7.5771   31.1386 C   0  0  0  0  0  0  0  0  0  0  0  0
   -6.7805   -6.9091   31.8796 O   0  0  0  0  0  0  0  0  0  0  0  0
   -5.4600   -8.8291   30.7313 C   0  0  0  0  0  0  0  0  0  0  0  0
   -5.1574  -10.4928   31.4420 S   0  0  0  0  0  0  0  0  0  0  0  0
   -8.9381   -7.2535   31.1775 N   0  0  0  0  0  0  0  0  0  0  0  0
  -10.1061   -8.0558   31.5054 C   0  0  2  0  0  0  0  0  0  0  0  0
   -9.7613   -9.1320   32.4550 C   0  0  0  0  0  0  0  0  0  0  0  0
   -8.8434   -8.7026   33.2803 O   0  0  0  0  0  0  0  0  0  0  0  0
  -10.8995   -8.4714   30.3220 C   0  0  0  0  0  0  0  0  0  0  0  0
  -10.3215   -9.6370   29.6120 C   0  0  0  0  0  0  0  0  0  0  0  0
  -11.1471  -10.6958   29.2147 C   0  0  0  0  0  0  0  0  0  0  0  0
   -8.9844   -9.7757   29.3193 C   0  0  0  0  0  0  0  0  0  0  0  0
  -10.6716  -11.8084   28.5733 C   0  0  0  0  0  0  0  0  0  0  0  0
   -8.4983  -10.8887   28.6762 C   0  0  0  0  0  0  0  0  0  0  0  0
   -9.3334  -11.9291   28.2896 C   0  0  0  0  0  0  0  0  0  0  0  0
   -8.8586  -13.0459   27.6456 O   0  0  0  0  0  0  0  0  0  0  0  0
  -10.1754  -10.4235   32.6457 N   0  0  0  0  0  0  0  0  0  0  0  0
  -11.2787  -11.0915   33.2724 C   0  0  2  0  0  0  0  0  0  0  0  0
  -11.6802  -12.2298   32.3923 C   0  0  0  0  0  0  0  0  0  0  0  0
  -11.4063  -12.1254   31.1673 O   0  0  0  0  0  0  0  0  0  0  0  0
  -12.3721  -10.3262   33.8674 C   0  0  0  0  0  0  0  0  0  0  0  0
  -13.5763   -9.9657   33.1031 C   0  0  0  0  0  0  0  0  0  0  0  0
  -13.6911  -10.4709   31.7035 C   0  0  0  0  0  0  0  0  0  0  0  0
  -12.5546  -11.3551   31.2763 C   0  0  0  0  0  0  0  0  0  0  0  0
  -12.8425  -11.8121   29.9222 N   0  0  0  0  0  4  0  0  0  0  0  0
  -12.3321  -13.3953   32.8189 N   0  0  0  0  0  0  0  0  0  0  0  0
  -12.0137  -14.1566   34.0248 C   0  0  2  0  0  0  0  0  0  0  0  0
  -10.9087  -15.0978   33.7568 C   0  0  0  0  0  0  0  0  0  0  0  0
  -11.2364  -16.0793   32.9856 O   0  0  0  0  0  0  0  0  0  0  0  0
  -13.2570  -15.0037   34.3284 C   0  0  0  0  0  0  0  0  0  0  0  0
  -13.1557  -16.2610   33.7556 O   0  0  0  0  0  0  0  0  0  0  0  0
   -9.5899  -15.0680   34.2120 N   0  0  0  0  0  0  0  0  0  0  0  0
   -9.1071  -15.2852   35.5816 C   0  0  2  0  0  0  0  0  0  0  0  0
   -8.3764  -16.5506   35.6512 C   0  0  0  0  0  0  0  0  0  0  0  0
   -9.0306  -17.5812   35.2288 O   0  0  0  0  0  0  0  0  0  0  0  0
  -10.0691  -14.8962   36.6313 C   0  0  0  0  0  0  0  0  0  0  0  0
   -9.5759  -14.3628   37.9109 C   0  0  0  0  0  0  0  0  0  0  0  0
   -8.1792  -14.5499   38.3396 C   0  0  0  0  0  0  0  0  0  0  0  0
   -7.1097  -14.4763   37.2959 C   0  0  0  0  0  0  0  0  0  0  0  0
   -6.7127  -15.6606   36.6452 N   0  0  0  0  0  4  0  0  0  0  0  0
   -7.0458  -16.7344   36.1256 N   0  0  0  0  0  0  0  0  0  0  0  0
   -5.9429  -15.8058   35.9278 C   0  0  2  0  0  0  0  0  0  0  0  0
   -5.0467  -16.4689   34.9313 C   0  0  0  0  0  0  0  0  0  0  0  0
   -5.6374  -16.6905   33.8040 O   0  0  0  0  0  0  0  0  0  0  0  0
   -5.3832  -15.7047   37.3062 C   0  0  0  0  0  0  0  0  0  0  0  0
   -5.7385  -17.0443   37.9626 C   0  0  0  0  0  0  0  0  0  0  0  0
   -6.4370  -17.8337   36.8726 C   0  0  0  0  0  0  0  0  0  0  0  0
   -3.7267  -16.8560   35.0640 N   0  0  0  0  0  0  0  0  0  0  0  0
   -2.5677  -16.0332   35.4147 C   0  0  2  0  0  0  0  0  0  0  0  0
   -2.7937  -14.5903   35.2404 C   0  0  0  0  0  0  0  0  0  0  0  0
   -3.5098  -14.3274   34.1806 O   0  0  0  0  0  0  0  0  0  0  0  0
   -1.5669  -16.4598   34.3626 C   0  0  0  0  0  0  0  0  0  0  0  0
   -1.8975  -17.8828   34.1042 C   0  0  0  0  0  0  0  0  0  0  0  0
   -3.1242  -18.1975   34.8922 C   0  0  0  0  0  0  0  0  0  0  0  0
   -2.4004  -13.4857   35.9753 N   0  0  0  0  0  0  0  0  0  0  0  0
   -1.2034  -12.8235   36.2826 C   0  0  2  0  0  0  0  0  0  0  0  0
   -1.0681  -11.4306   35.7843 C   0  0  0  0  0  0  0  0  0  0  0  0
   -0.9519  -10.5451   36.7307 O   0  0  0  0  0  0  0  0  0  0  0  0
    0.1271  -13.4494   36.1727 C   0  0  2  0  0  0  0  0  0  0  0  0
    1.0676  -13.2182   37.3231 C   0  0  0  0  0  0  0  0  0  0  0  0
    0.8931  -12.8285   34.9642 C   0  0  0  0  0  0  0  0  0  0  0  0
    0.3892  -12.2505   38.2979 C   0  0  0  0  0  0  0  0  0  0  0  0
   -1.0446  -10.9181   34.5018 N   0  0  0  0  0  0  0  0  0  0  0  0
   -1.2225  -11.5097   33.2208 C   0  0  2  0  0  0  0  0  0  0  0  0
   -0.0105  -11.8836   32.4878 C   0  0  0  0  0  0  0  0  0  0  0  0
    0.2005  -13.1753   32.4533 O   0  0  0  0  0  0  0  0  0  0  0  0
   -2.0989  -10.5539   32.3720 C   0  0  0  0  0  0  0  0  0  0  0  0
   -3.7704  -10.4487   33.0213 S   0  0  0  0  0  0  0  0  0  0  0  0
    0.9454  -11.0935   31.8268 N   0  0  0  0  0  0  0  0  0  0  0  0
    1.4660   -9.7949   32.1729 C   0  0  2  0  0  0  0  0  0  0  0  0
    2.4381   -9.3822   31.0988 C   0  0  0  0  0  0  0  0  0  0  0  0
    2.6533  -10.2186   30.1456 O   0  0  0  0  0  0  0  0  0  0  0  0
    2.1903   -9.7750   33.4784 C   0  0  0  0  0  0  0  0  0  0  0  0
    2.7990  -11.0666   33.9044 C   0  0  0  0  0  0  0  0  0  0  0  0
    2.6810  -12.1829   33.0950 C   0  0  0  0  0  0  0  0  0  0  0  0
    3.4727  -11.1958   35.0911 C   0  0  0  0  0  0  0  0  0  0  0  0
    3.2259  -13.3745   33.4831 C   0  0  0  0  0  0  0  0  0  0  0  0
    4.0114  -12.4095   35.4570 C   0  0  0  0  0  0  0  0  0  0  0  0
    3.9060  -13.5334   34.6682 C   0  0  0  0  0  0  0  0  0  0  0  0
    3.1417   -8.1694   31.0219 N   0  0  0  0  0  0  0  0  0  0  0  0
    2.5186   -6.8642   31.3291 C   0  0  2  0  0  0  0  0  0  0  0  0
    2.3705   -6.0275   30.1110 C   0  0  0  0  0  0  0  0  0  0  0  0
    3.4705   -5.7945   29.4882 O   0  0  0  0  0  0  0  0  0  0  0  0
    3.6432   -6.2759   32.2177 C   0  0  0  0  0  0  0  0  0  0  0  0
    4.9014   -6.7124   31.5231 C   0  0  0  0  0  0  0  0  0  0  0  0
    4.4945   -7.8604   30.6637 C   0  0  0  0  0  0  0  0  0  0  0  0
    1.1903   -5.4845   29.5869 N   0  0  0  0  0  0  0  0  0  0  0  0
    0.2186   -4.6315   30.2142 C   0  0  2  0  0  0  0  0  0  0  0  0
   -0.4182   -3.7654   29.1355 C   0  0  0  0  0  0  0  0  0  0  0  0
    0.3941   -3.1619   28.3892 O   0  0  0  0  0  0  0  0  0  0  0  0
    0.7118   -3.6851   31.2387 C   0  0  0  0  0  0  0  0  0  0  0  0
   -0.2193   -2.5618   31.4418 C   0  0  0  0  0  0  0  0  0  0  0  0
   -1.4822   -2.7480   32.0316 O   0  0  0  0  0  0  0  0  0  0  0  0
    0.0866   -1.3952   31.0936 O   0  0  0  0  0  0  0  0  0  0  0  0
   -3.1066   -3.1905   28.8556 O   0  0  0  0  0  0  0  0  0  0  0  0
   -5.4891   -8.7545   26.2816 H   0  0  0  0  0  0  0  0  0  0  0  0
  1  2  1  0
  1106  1  0
  1112  1  0
  2  3  1  0
  2112  1  6
  3  4  2  0
  3  5  1  0
  5  6  1  0
  6  7  1  0
  6  9  1  6
  7  8  2  0
  7 16  1  0
  9 10  1  0
 10 11  1  0
 11 12  1  0
 12 13  1  0
 13 14  1  0
 13 15  2  0
 17 16  1  6
 17 18  1  0
 17 20  1  0
 18 19  2  0
 18 22  1  0
 20 21  1  0
 21 85  1  0
 22 23  1  0
 23 24  1  0
 23 26  1  6
 24 25  2  0
 24 34  1  0
 26 27  1  0
 27 28  2  0
 27 29  1  0
 28 30  1  0
 29 31  2  0
 30 32  2  0
 31 32  1  0
 32 33  1  0
 34 35  1  0
 35 36  1  0
 35 38  1  6
 36 37  2  0
 36 43  1  0
 38 39  1  0
 39 40  1  0
 40 41  1  0
 41 42  1  0
 43 44  1  0
 44 45  1  0
 44 47  1  6
 45 46  2  0
 45 49  1  0
 47 48  1  0
 49 50  1  0
 50 51  1  0
 50 53  1  1
 51 52  2  0
 51 58  1  0
 53 54  1  0
 54 55  1  0
 55 56  1  0
 56 57  1  0
 58 59  1  0
 58 64  1  0
 59 60  1  0
 59 62  1  1
 60 61  2  0
 60 65  1  0
 62 63  1  0
 63 64  1  0
 65 66  1  0
 65 71  1  0
 66 67  1  0
 66 69  1  6
 67 68  2  0
 67 72  1  0
 69 70  1  0
 70 71  1  0
 73 72  1  6
 73 74  1  0
 73 76  1  0
 74 75  2  0
 74 80  1  0
 76 77  1  0
 76 78  1  6
 77 79  1  0
 81 80  1  1
 81 82  1  0
 81 84  1  0
 82 83  2  0
 82 86  1  0
 84 85  1  0
 86 87  1  0
 87 88  1  0
 87 90  1  1
 88 89  2  0
 88 97  1  0
 90 91  1  0
 91 92  2  0
 91 93  1  0
 92 94  1  0
 93 95  2  0
 94 96  2  0
 95 96  1  0
 97 98  1  0
 97103  1  0
 98 99  1  0
 98101  1  1
 99100  2  0
 99104  1  0
101102  1  0
102103  1  0
104105  1  0
105106  1  0
105108  1  1
106107  2  0
108109  1  0
109110  1  0
109111  2  0
 15113  1  0
M  CHG  2  42   1  57   1
M  END
$$$$
