
     RDKit          3D

 14 13  0  0  0  0  0  0  0  0999 V2000
   27.8924   39.8115   36.3432 C   0  0  0  0  0  0  0  0  0  0  0  0
   29.1692   39.2701   36.8864 C   0  0  0  0  0  0  0  0  0  0  0  0
   30.3690   39.5737   36.0339 C   0  0  0  0  0  0  0  0  0  0  0  0
   20.0794   41.7064   34.2596 C   0  0  0  0  0  0  0  0  0  0  0  0
   20.2766   40.2267   33.9896 C   0  0  1  0  0  0  0  0  0  0  0  0
   21.2003   39.7078   35.0890 C   0  0  0  0  0  0  0  0  0  0  0  0
   22.6192   40.1648   34.8634 C   0  0  0  0  0  0  0  0  0  0  0  0
   23.5509   39.6365   35.9121 C   0  0  0  0  0  0  0  0  0  0  0  0
   24.9133   39.4584   35.3289 C   0  0  0  0  0  0  0  0  0  0  0  0
   25.8080   38.6117   36.2472 C   0  0  0  0  0  0  0  0  0  0  0  0
   27.1435   38.7307   35.7438 N   0  0  0  0  0  4  0  0  0  0  0  0
   31.5556   39.8674   36.7638 N   0  0  0  0  0  4  0  0  0  0  0  0
   19.0289   39.6150   34.0445 O   0  0  0  0  0  0  0  0  0  0  0  0
   20.8639   40.1055   32.7338 O   0  0  0  0  0  0  0  0  0  0  0  0
  1  2  1  0
 11  1  1  0
  2  3  1  0
  3 12  1  0
  5  4  1  1
  6  5  1  0
  5 13  1  0
  5 14  1  0
  7  6  1  0
  8  7  1  0
  9  8  1  0
 10  9  1  0
 10 11  1  0
M  CHG  2  11   1  12   1
M  END
$$$$
