
     RDKit          3D

 14 13  0  0  0  0  0  0  0  0999 V2000
   28.2177   39.0304   36.8474 C   0  0  0  0  0  0  0  0  0  0  0  0
   28.7298   38.2594   38.0143 C   0  0  0  0  0  0  0  0  0  0  0  0
   30.2270   38.1345   38.0499 C   0  0  0  0  0  0  0  0  0  0  0  0
   19.2645   41.1940   35.3678 C   0  0  0  0  0  0  0  0  0  0  0  0
   20.1687   40.3228   34.5167 C   0  0  1  0  0  0  0  0  0  0  0  0
   21.6000   40.7509   34.8316 C   0  0  0  0  0  0  0  0  0  0  0  0
   22.5650   39.6132   34.6141 C   0  0  0  0  0  0  0  0  0  0  0  0
   23.9911   40.0727   34.6573 C   0  0  0  0  0  0  0  0  0  0  0  0
   24.7166   39.3551   35.7466 C   0  0  0  0  0  0  0  0  0  0  0  0
   26.1763   39.8236   35.8490 C   0  0  0  0  0  0  0  0  0  0  0  0
   26.7748   39.0751   36.9132 N   0  0  0  0  0  4  0  0  0  0  0  0
   30.8031   38.2777   39.3440 N   0  0  0  0  0  4  0  0  0  0  0  0
   19.9442   38.9984   34.8770 O   0  0  0  0  0  0  0  0  0  0  0  0
   19.8482   40.5640   33.1841 O   0  0  0  0  0  0  0  0  0  0  0  0
  1  2  1  0
 11  1  1  0
  2  3  1  0
  3 12  1  0
  5  4  1  1
  6  5  1  0
  5 13  1  0
  5 14  1  0
  7  6  1  0
  8  7  1  0
  9  8  1  0
 10  9  1  0
 10 11  1  0
M  CHG  2  11   1  12   1
M  END
$$$$
