
     RDKit          3D

 14 13  0  0  0  0  0  0  0  0999 V2000
   28.2389   38.8187   36.6671 C   0  0  0  0  0  0  0  0  0  0  0  0
   29.3937   38.6241   35.7468 C   0  0  0  0  0  0  0  0  0  0  0  0
   30.7022   39.1109   36.3030 C   0  0  0  0  0  0  0  0  0  0  0  0
   19.9534   41.8587   33.6823 C   0  0  0  0  0  0  0  0  0  0  0  0
   20.3792   40.4120   33.8463 C   0  0  1  0  0  0  0  0  0  0  0  0
   21.3558   40.3810   35.0194 C   0  0  0  0  0  0  0  0  0  0  0  0
   22.7832   40.4189   34.5359 C   0  0  0  0  0  0  0  0  0  0  0  0
   23.6318   39.3861   35.2142 C   0  0  0  0  0  0  0  0  0  0  0  0
   25.0708   39.6407   34.9104 C   0  0  0  0  0  0  0  0  0  0  0  0
   25.9894   38.8007   35.8110 C   0  0  0  0  0  0  0  0  0  0  0  0
   27.2024   39.5452   35.9699 N   0  0  0  0  0  4  0  0  0  0  0  0
   31.0717   38.5257   37.5472 N   0  0  0  0  0  4  0  0  0  0  0  0
   19.2395   39.6616   34.1148 O   0  0  0  0  0  0  0  0  0  0  0  0
   20.9960   40.0210   32.6617 O   0  0  0  0  0  0  0  0  0  0  0  0
  1  2  1  0
 11  1  1  0
  2  3  1  0
  3 12  1  0
  5  4  1  6
  6  5  1  0
  5 13  1  0
  5 14  1  0
  7  6  1  0
  8  7  1  0
  9  8  1  0
 10  9  1  0
 10 11  1  0
M  CHG  2  11   1  12   1
M  END
$$$$
