
     RDKit          3D

 14 13  0  0  0  0  0  0  0  0999 V2000
   28.4132   38.2000   36.1834 C   0  0  0  0  0  0  0  0  0  0  0  0
   29.3753   39.3369   36.1678 C   0  0  0  0  0  0  0  0  0  0  0  0
   30.6730   39.0438   36.8668 C   0  0  0  0  0  0  0  0  0  0  0  0
   19.4311   41.5342   34.5302 C   0  0  0  0  0  0  0  0  0  0  0  0
   20.4267   40.4609   34.1327 C   0  0  1  0  0  0  0  0  0  0  0  0
   21.6879   40.7182   34.9539 C   0  0  0  0  0  0  0  0  0  0  0  0
   22.7327   39.6652   34.6845 C   0  0  0  0  0  0  0  0  0  0  0  0
   23.7868   39.6371   35.7498 C   0  0  0  0  0  0  0  0  0  0  0  0
   25.1382   39.5966   35.1174 C   0  0  0  0  0  0  0  0  0  0  0  0
   26.2173   39.1842   36.1304 C   0  0  0  0  0  0  0  0  0  0  0  0
   27.2619   38.5505   35.3834 N   0  0  0  0  0  4  0  0  0  0  0  0
   30.7611   39.5561   38.1922 N   0  0  0  0  0  4  0  0  0  0  0  0
   19.8649   39.2261   34.4389 O   0  0  0  0  0  0  0  0  0  0  0  0
   20.6708   40.6012   32.7699 O   0  0  0  0  0  0  0  0  0  0  0  0
  1  2  1  0
 11  1  1  0
  2  3  1  0
  3 12  1  0
  5  4  1  1
  6  5  1  0
  5 13  1  0
  5 14  1  0
  7  6  1  0
  8  7  1  0
  9  8  1  0
 10  9  1  0
 10 11  1  0
M  CHG  2  11   1  12   1
M  END
$$$$
