
     RDKit          3D

 14 13  0  0  0  0  0  0  0  0999 V2000
   28.5904   38.9842   36.1392 C   0  0  0  0  0  0  0  0  0  0  0  0
   29.2808   38.7619   37.4400 C   0  0  0  0  0  0  0  0  0  0  0  0
   29.6978   40.0299   38.1307 C   0  0  0  0  0  0  0  0  0  0  0  0
   19.5703   41.2254   35.0507 C   0  0  0  0  0  0  0  0  0  0  0  0
   20.4277   40.2478   34.2697 C   0  0  1  0  0  0  0  0  0  0  0  0
   21.8595   40.7722   34.3490 C   0  0  0  0  0  0  0  0  0  0  0  0
   22.7063   39.8997   35.2404 C   0  0  0  0  0  0  0  0  0  0  0  0
   24.1606   39.9829   34.8872 C   0  0  0  0  0  0  0  0  0  0  0  0
   24.9123   38.9083   35.5999 C   0  0  0  0  0  0  0  0  0  0  0  0
   26.3881   38.8813   35.1734 C   0  0  0  0  0  0  0  0  0  0  0  0
   27.1642   39.0277   36.3680 N   0  0  0  0  0  4  0  0  0  0  0  0
   31.0621   40.0625   38.5366 N   0  0  0  0  0  4  0  0  0  0  0  0
   20.3095   39.0014   34.8752 O   0  0  0  0  0  0  0  0  0  0  0  0
   19.9624   40.2386   32.9582 O   0  0  0  0  0  0  0  0  0  0  0  0
  1  2  1  0
 11  1  1  0
  2  3  1  0
  3 12  1  0
  5  4  1  1
  6  5  1  0
  5 13  1  0
  5 14  1  0
  7  6  1  0
  8  7  1  0
  9  8  1  0
 10  9  1  0
 10 11  1  0
M  CHG  2  11   1  12   1
M  END
$$$$
