
     RDKit          3D

 14 13  0  0  0  0  0  0  0  0999 V2000
   28.4205   38.5159   36.5401 C   0  0  0  0  0  0  0  0  0  0  0  0
   29.4242   39.6141   36.6110 C   0  0  0  0  0  0  0  0  0  0  0  0
   30.8483   39.1348   36.6339 C   0  0  0  0  0  0  0  0  0  0  0  0
   19.6630   39.5340   35.1737 C   0  0  0  0  0  0  0  0  0  0  0  0
   20.3924   40.5024   34.2619 C   0  0  1  0  0  0  0  0  0  0  0  0
   21.6451   40.9427   35.0154 C   0  0  0  0  0  0  0  0  0  0  0  0
   22.8076   40.0325   34.7103 C   0  0  0  0  0  0  0  0  0  0  0  0
   23.9421   40.2325   35.6694 C   0  0  0  0  0  0  0  0  0  0  0  0
   25.0809   39.3447   35.2914 C   0  0  0  0  0  0  0  0  0  0  0  0
   26.3193   39.6253   36.1565 C   0  0  0  0  0  0  0  0  0  0  0  0
   27.3984   38.8773   35.5847 N   0  0  0  0  0  4  0  0  0  0  0  0
   31.5373   39.2647   35.3948 N   0  0  0  0  0  4  0  0  0  0  0  0
   20.7161   39.8229   33.0925 O   0  0  0  0  0  0  0  0  0  0  0  0
   19.5394   41.5760   34.0242 O   0  0  0  0  0  0  0  0  0  0  0  0
  1  2  1  0
 11  1  1  0
  2  3  1  0
  3 12  1  0
  5  4  1  1
  6  5  1  0
  5 13  1  0
  5 14  1  0
  7  6  1  0
  8  7  1  0
  9  8  1  0
 10  9  1  0
 10 11  1  0
M  CHG  2  11   1  12   1
M  END
$$$$
