
     RDKit          3D

 14 13  0  0  0  0  0  0  0  0999 V2000
   28.4584   39.1511   36.4105 C   0  0  0  0  0  0  0  0  0  0  0  0
   28.8186   38.7022   37.7842 C   0  0  0  0  0  0  0  0  0  0  0  0
   30.2993   38.6154   38.0260 C   0  0  0  0  0  0  0  0  0  0  0  0
   19.4416   40.8530   35.4633 C   0  0  0  0  0  0  0  0  0  0  0  0
   20.1881   40.3267   34.2522 C   0  0  1  0  0  0  0  0  0  0  0  0
   21.6049   40.8886   34.3421 C   0  0  0  0  0  0  0  0  0  0  0  0
   22.5557   39.8687   34.9153 C   0  0  0  0  0  0  0  0  0  0  0  0
   23.8796   40.4751   35.2710 C   0  0  0  0  0  0  0  0  0  0  0  0
   24.8141   39.4057   35.7302 C   0  0  0  0  0  0  0  0  0  0  0  0
   26.2544   39.9299   35.8366 C   0  0  0  0  0  0  0  0  0  0  0  0
   27.0801   38.8028   36.1509 N   0  0  0  0  0  4  0  0  0  0  0  0
   30.6631   38.2752   39.3598 N   0  0  0  0  0  4  0  0  0  0  0  0
   20.1875   38.9378   34.3233 O   0  0  0  0  0  0  0  0  0  0  0  0
   19.5281   40.7929   33.1192 O   0  0  0  0  0  0  0  0  0  0  0  0
  1  2  1  0
 11  1  1  0
  2  3  1  0
  3 12  1  0
  5  4  1  1
  6  5  1  0
  5 13  1  0
  5 14  1  0
  7  6  1  0
  8  7  1  0
  9  8  1  0
 10  9  1  0
 10 11  1  0
M  CHG  2  11   1  12   1
M  END
$$$$
