
     RDKit          3D

 14 13  0  0  0  0  0  0  0  0999 V2000
   23.0511   40.9844   35.0311 C   0  0  0  0  0  0  0  0  0  0  0  0
   22.2897   40.4394   33.8728 C   0  0  0  0  0  0  0  0  0  0  0  0
   21.1463   39.5459   34.2639 C   0  0  0  0  0  0  0  0  0  0  0  0
   30.7927   38.6178   37.1929 C   0  0  0  0  0  0  0  0  0  0  0  0
   30.0859   37.2796   37.2967 C   0  0  1  0  0  0  0  0  0  0  0  0
   28.7119   37.4679   36.6581 C   0  0  0  0  0  0  0  0  0  0  0  0
   27.8870   38.4634   37.4336 C   0  0  0  0  0  0  0  0  0  0  0  0
   27.2776   39.5019   36.5408 C   0  0  0  0  0  0  0  0  0  0  0  0
   25.7938   39.4940   36.7020 C   0  0  0  0  0  0  0  0  0  0  0  0
   25.1661   40.7887   36.1632 C   0  0  0  0  0  0  0  0  0  0  0  0
   24.3822   40.4218   35.0223 N   0  0  0  0  0  4  0  0  0  0  0  0
   20.2910   39.1729   33.1886 N   0  0  0  0  0  4  0  0  0  0  0  0
   30.8444   36.3436   36.6020 O   0  0  0  0  0  0  0  0  0  0  0  0
   29.9789   36.9671   38.6485 O   0  0  0  0  0  0  0  0  0  0  0  0
  1  2  1  0
 11  1  1  0
  2  3  1  0
  3 12  1  0
  5  4  1  1
  6  5  1  0
  5 13  1  0
  5 14  1  0
  7  6  1  0
  8  7  1  0
  9  8  1  0
 10  9  1  0
 10 11  1  0
M  CHG  2  11   1  12   1
M  END
$$$$
