
     RDKit          3D

 14 13  0  0  0  0  0  0  0  0999 V2000
   28.1837   39.2315   36.2730 C   0  0  0  0  0  0  0  0  0  0  0  0
   29.5005   39.2771   35.5786 C   0  0  0  0  0  0  0  0  0  0  0  0
   30.6074   39.8574   36.4130 C   0  0  0  0  0  0  0  0  0  0  0  0
   19.8393   41.7269   33.9653 C   0  0  0  0  0  0  0  0  0  0  0  0
   20.3221   40.2924   33.8643 C   0  0  1  0  0  0  0  0  0  0  0  0
   21.2282   40.0572   35.0704 C   0  0  0  0  0  0  0  0  0  0  0  0
   22.6811   40.1816   34.6876 C   0  0  0  0  0  0  0  0  0  0  0  0
   23.5387   39.1906   35.4153 C   0  0  0  0  0  0  0  0  0  0  0  0
   24.9685   39.6117   35.3370 C   0  0  0  0  0  0  0  0  0  0  0  0
   25.8976   38.5519   35.9488 C   0  0  0  0  0  0  0  0  0  0  0  0
   27.1854   38.7397   35.3512 N   0  0  0  0  0  4  0  0  0  0  0  0
   31.7488   40.2785   35.6734 N   0  0  0  0  0  4  0  0  0  0  0  0
   19.2049   39.4648   33.8999 O   0  0  0  0  0  0  0  0  0  0  0  0
   21.0253   40.1710   32.6696 O   0  0  0  0  0  0  0  0  0  0  0  0
  1  2  1  0
 11  1  1  0
  2  3  1  0
  3 12  1  0
  5  4  1  1
  6  5  1  0
  5 13  1  0
  5 14  1  0
  7  6  1  0
  8  7  1  0
  9  8  1  0
 10  9  1  0
 10 11  1  0
M  CHG  2  11   1  12   1
M  END
$$$$
