
     RDKit          3D

 14 13  0  0  0  0  0  0  0  0999 V2000
   28.3207   39.2581   35.6792 C   0  0  0  0  0  0  0  0  0  0  0  0
   29.0232   38.6592   34.5104 C   0  0  0  0  0  0  0  0  0  0  0  0
   30.4695   39.0534   34.4037 C   0  0  0  0  0  0  0  0  0  0  0  0
   19.2931   41.4670   34.1911 C   0  0  0  0  0  0  0  0  0  0  0  0
   20.3010   40.3870   33.8461 C   0  0  1  0  0  0  0  0  0  0  0  0
   21.4510   40.5384   34.8389 C   0  0  0  0  0  0  0  0  0  0  0  0
   22.6302   39.6911   34.4338 C   0  0  0  0  0  0  0  0  0  0  0  0
   23.5576   39.4359   35.5834 C   0  0  0  0  0  0  0  0  0  0  0  0
   24.9526   39.2768   35.0769 C   0  0  0  0  0  0  0  0  0  0  0  0
   25.9789   39.4195   36.2114 C   0  0  0  0  0  0  0  0  0  0  0  0
   27.0744   38.5565   35.8858 N   0  0  0  0  0  4  0  0  0  0  0  0
   30.8868   39.4271   33.0948 N   0  0  0  0  0  4  0  0  0  0  0  0
   19.6690   39.1561   33.9854 O   0  0  0  0  0  0  0  0  0  0  0  0
   20.7249   40.6127   32.5400 O   0  0  0  0  0  0  0  0  0  0  0  0
  1  2  1  0
 11  1  1  0
  2  3  1  0
  3 12  1  0
  5  4  1  1
  6  5  1  0
  5 13  1  0
  5 14  1  0
  7  6  1  0
  8  7  1  0
  9  8  1  0
 10  9  1  0
 10 11  1  0
M  CHG  2  11   1  12   1
M  END
$$$$
