
     RDKit          3D

 14 13  0  0  0  0  0  0  0  0999 V2000
   28.2181   39.1851   36.7986 C   0  0  0  0  0  0  0  0  0  0  0  0
   28.8280   38.0704   37.5756 C   0  0  0  0  0  0  0  0  0  0  0  0
   30.2975   38.2456   37.8376 C   0  0  0  0  0  0  0  0  0  0  0  0
   19.1036   41.4841   34.5014 C   0  0  0  0  0  0  0  0  0  0  0  0
   20.2202   40.5277   34.1277 C   0  0  1  0  0  0  0  0  0  0  0  0
   21.4560   40.9868   34.8979 C   0  0  0  0  0  0  0  0  0  0  0  0
   22.6321   40.0855   34.6201 C   0  0  0  0  0  0  0  0  0  0  0  0
   23.6404   40.1230   35.7287 C   0  0  0  0  0  0  0  0  0  0  0  0
   24.8151   39.2761   35.3672 C   0  0  0  0  0  0  0  0  0  0  0  0
   26.1299   39.9103   35.8464 C   0  0  0  0  0  0  0  0  0  0  0  0
   26.8105   38.9134   36.6170 N   0  0  0  0  0  4  0  0  0  0  0  0
   30.6190   38.6453   39.1657 N   0  0  0  0  0  4  0  0  0  0  0  0
   19.8299   39.2489   34.5103 O   0  0  0  0  0  0  0  0  0  0  0  0
   20.4129   40.6267   32.7531 O   0  0  0  0  0  0  0  0  0  0  0  0
  1  2  1  0
 11  1  1  0
  2  3  1  0
  3 12  1  0
  5  4  1  1
  6  5  1  0
  5 13  1  0
  5 14  1  0
  7  6  1  0
  8  7  1  0
  9  8  1  0
 10  9  1  0
 10 11  1  0
M  CHG  2  11   1  12   1
M  END
$$$$
