
     RDKit          3D

 14 13  0  0  0  0  0  0  0  0999 V2000
   28.4090   38.8578   36.9412 C   0  0  0  0  0  0  0  0  0  0  0  0
   29.3355   39.2196   35.8327 C   0  0  0  0  0  0  0  0  0  0  0  0
   30.7882   39.1703   36.2148 C   0  0  0  0  0  0  0  0  0  0  0  0
   21.0362   41.3952   33.2398 C   0  0  0  0  0  0  0  0  0  0  0  0
   20.5435   40.1475   33.9481 C   0  0  1  0  0  0  0  0  0  0  0  0
   21.7771   39.2882   34.2145 C   0  0  0  0  0  0  0  0  0  0  0  0
   22.9218   40.1280   34.7217 C   0  0  0  0  0  0  0  0  0  0  0  0
   24.1948   39.3419   34.8144 C   0  0  0  0  0  0  0  0  0  0  0  0
   24.8660   39.6259   36.1170 C   0  0  0  0  0  0  0  0  0  0  0  0
   26.0860   38.7160   36.3272 C   0  0  0  0  0  0  0  0  0  0  0  0
   27.1602   39.5609   36.7554 N   0  0  0  0  0  4  0  0  0  0  0  0
   31.1478   40.0322   37.2894 N   0  0  0  0  0  4  0  0  0  0  0  0
   19.9358   40.5445   35.1343 O   0  0  0  0  0  0  0  0  0  0  0  0
   19.6527   39.5056   33.0931 O   0  0  0  0  0  0  0  0  0  0  0  0
  1  2  1  0
 11  1  1  0
  2  3  1  0
  3 12  1  0
  5  4  1  6
  6  5  1  0
  5 13  1  0
  5 14  1  0
  7  6  1  0
  8  7  1  0
  9  8  1  0
 10  9  1  0
 10 11  1  0
M  CHG  2  11   1  12   1
M  END
$$$$
