
     RDKit          3D

 14 13  0  0  0  0  0  0  0  0999 V2000
   28.2036   39.3350   36.5657 C   0  0  0  0  0  0  0  0  0  0  0  0
   28.9853   38.0716   36.6704 C   0  0  0  0  0  0  0  0  0  0  0  0
   30.3999   38.2695   37.1375 C   0  0  0  0  0  0  0  0  0  0  0  0
   19.4286   41.0951   34.8613 C   0  0  0  0  0  0  0  0  0  0  0  0
   20.2340   40.7999   33.6102 C   0  0  1  0  0  0  0  0  0  0  0  0
   21.6533   41.2905   33.8862 C   0  0  0  0  0  0  0  0  0  0  0  0
   22.4287   40.2779   34.6900 C   0  0  0  0  0  0  0  0  0  0  0  0
   23.7597   40.8108   35.1274 C   0  0  0  0  0  0  0  0  0  0  0  0
   24.6881   39.6755   35.4048 C   0  0  0  0  0  0  0  0  0  0  0  0
   26.0293   40.1741   35.9645 C   0  0  0  0  0  0  0  0  0  0  0  0
   26.8718   39.0239   36.0993 N   0  0  0  0  0  4  0  0  0  0  0  0
   31.2112   39.0426   36.2594 N   0  0  0  0  0  4  0  0  0  0  0  0
   20.2040   39.4255   33.4002 O   0  0  0  0  0  0  0  0  0  0  0  0
   19.6491   41.5025   32.5610 O   0  0  0  0  0  0  0  0  0  0  0  0
  1  2  1  0
 11  1  1  0
  2  3  1  0
  3 12  1  0
  5  4  1  1
  6  5  1  0
  5 13  1  0
  5 14  1  0
  7  6  1  0
  8  7  1  0
  9  8  1  0
 10  9  1  0
 10 11  1  0
M  CHG  2  11   1  12   1
M  END
$$$$
