
     RDKit          3D

 18 17  0  0  0  0  0  0  0  0999 V2000
   -1.4310   -1.3288  -17.2248 C   0  0  0  0  0  0  0  0  0  0  0  0
   -2.1432   -0.4810  -16.5919 O   0  0  0  0  0  0  0  0  0  0  0  0
   -0.0836   -1.0344  -17.3368 O   0  0  0  0  0  0  0  0  0  0  0  0
   -2.0121   -2.5515  -17.8002 C   0  0  0  0  0  0  0  0  0  0  0  0
   -2.9444   -3.2427  -16.8431 C   0  0  0  0  0  0  0  0  0  0  0  0
   -2.6616   -4.7110  -16.7620 C   0  0  0  0  0  0  0  0  0  0  0  0
   -3.5966   -5.4439  -17.6857 C   0  0  0  0  0  0  0  0  0  0  0  0
   -4.9451   -5.5644  -17.0621 C   0  0  0  0  0  0  0  0  0  0  0  0
   -5.9421   -5.7255  -18.2190 C   0  0  0  0  0  0  0  0  0  0  0  0
   -6.8989   -6.8071  -17.8413 C   0  0  0  0  0  0  0  0  0  0  0  0
   -8.0663   -6.9623  -18.7914 C   0  0  0  0  0  0  0  0  0  0  0  0
   -8.8821   -8.1518  -18.1901 C   0  0  0  0  0  0  0  0  0  0  0  0
  -10.1243   -8.3594  -18.9592 C   0  0  0  0  0  0  0  0  0  0  0  0
  -10.9052   -9.5483  -18.5763 C   0  0  0  0  0  0  0  0  0  0  0  0
  -11.2541  -10.6202  -19.5118 C   0  0  0  0  0  0  0  0  0  0  0  0
  -12.6579  -10.9650  -19.8006 C   0  0  0  0  0  0  0  0  0  0  0  0
  -12.8771  -12.4923  -19.5557 C   0  0  0  0  0  0  0  0  0  0  0  0
  -14.3142  -12.7521  -19.9275 C   0  0  0  0  0  0  0  0  0  0  0  0
  1  2  2  0
  1  3  1  0
  1  4  1  0
  4  5  1  0
  5  6  1  0
  6  7  1  0
  7  8  1  0
  8  9  1  0
  9 10  1  0
 10 11  1  0
 11 12  1  0
 12 13  1  0
 13 14  1  0
 14 15  1  0
 15 16  1  0
 16 17  1  0
 17 18  1  0
M  END
$$$$
