
     RDKit          3D

 18 17  0  0  0  0  0  0  0  0999 V2000
   -0.8925   -2.3994  -17.4203 C   0  0  0  0  0  0  0  0  0  0  0  0
    0.1900   -3.0719  -17.3691 O   0  0  0  0  0  0  0  0  0  0  0  0
   -1.0084   -1.5049  -18.4697 O   0  0  0  0  0  0  0  0  0  0  0  0
   -1.9572   -2.5693  -16.4197 C   0  0  0  0  0  0  0  0  0  0  0  0
   -2.3244   -4.0144  -16.2203 C   0  0  0  0  0  0  0  0  0  0  0  0
   -3.2072   -4.5155  -17.3212 C   0  0  0  0  0  0  0  0  0  0  0  0
   -4.2180   -5.4702  -16.7455 C   0  0  0  0  0  0  0  0  0  0  0  0
   -5.4220   -5.5338  -17.6220 C   0  0  0  0  0  0  0  0  0  0  0  0
   -5.8747   -7.0013  -17.6265 C   0  0  0  0  0  0  0  0  0  0  0  0
   -7.2577   -7.0439  -18.1866 C   0  0  0  0  0  0  0  0  0  0  0  0
   -7.8489   -8.4340  -18.2743 C   0  0  0  0  0  0  0  0  0  0  0  0
   -9.2842   -8.1945  -18.8439 C   0  0  0  0  0  0  0  0  0  0  0  0
  -10.1746   -9.3103  -18.4700 C   0  0  0  0  0  0  0  0  0  0  0  0
  -10.6015  -10.1707  -19.5868 C   0  0  0  0  0  0  0  0  0  0  0  0
  -11.5027  -11.3142  -19.4257 C   0  0  0  0  0  0  0  0  0  0  0  0
  -12.0805  -12.0107  -20.5894 C   0  0  0  0  0  0  0  0  0  0  0  0
  -13.6357  -12.0524  -20.4485 C   0  0  0  0  0  0  0  0  0  0  0  0
  -14.0279  -13.4667  -20.7909 C   0  0  0  0  0  0  0  0  0  0  0  0
  1  2  2  0
  1  3  1  0
  1  4  1  0
  4  5  1  0
  5  6  1  0
  6  7  1  0
  7  8  1  0
  8  9  1  0
  9 10  1  0
 10 11  1  0
 11 12  1  0
 12 13  1  0
 13 14  1  0
 14 15  1  0
 15 16  1  0
 16 17  1  0
 17 18  1  0
M  END
$$$$
