
     RDKit          3D

 18 17  0  0  0  0  0  0  0  0999 V2000
   -0.4782   -2.6446  -17.7510 C   0  0  0  0  0  0  0  0  0  0  0  0
   -0.8792   -1.4895  -18.1136 O   0  0  0  0  0  0  0  0  0  0  0  0
    0.6005   -3.1639  -18.4449 O   0  0  0  0  0  0  0  0  0  0  0  0
   -1.1268   -3.3800  -16.6546 C   0  0  0  0  0  0  0  0  0  0  0  0
   -2.6269   -3.3590  -16.7653 C   0  0  0  0  0  0  0  0  0  0  0  0
   -3.1229   -4.3929  -17.7283 C   0  0  0  0  0  0  0  0  0  0  0  0
   -4.2798   -5.1286  -17.1079 C   0  0  0  0  0  0  0  0  0  0  0  0
   -4.8014   -6.1563  -18.0532 C   0  0  0  0  0  0  0  0  0  0  0  0
   -6.0129   -6.8006  -17.3636 C   0  0  0  0  0  0  0  0  0  0  0  0
   -6.8078   -7.5029  -18.4140 C   0  0  0  0  0  0  0  0  0  0  0  0
   -8.0640   -8.1705  -17.8985 C   0  0  0  0  0  0  0  0  0  0  0  0
   -8.6732   -8.8506  -19.1667 C   0  0  0  0  0  0  0  0  0  0  0  0
   -9.8747   -9.6262  -18.8028 C   0  0  0  0  0  0  0  0  0  0  0  0
  -10.3690  -10.5397  -19.8473 C   0  0  0  0  0  0  0  0  0  0  0  0
  -11.7630  -10.9801  -19.9403 C   0  0  0  0  0  0  0  0  0  0  0  0
  -12.2604  -11.7234  -21.1122 C   0  0  0  0  0  0  0  0  0  0  0  0
  -13.7511  -12.1261  -20.8757 C   0  0  0  0  0  0  0  0  0  0  0  0
  -14.1943  -12.7806  -22.1589 C   0  0  0  0  0  0  0  0  0  0  0  0
  1  2  2  0
  1  3  1  0
  1  4  1  0
  4  5  1  0
  5  6  1  0
  6  7  1  0
  7  8  1  0
  8  9  1  0
  9 10  1  0
 10 11  1  0
 11 12  1  0
 12 13  1  0
 13 14  1  0
 14 15  1  0
 15 16  1  0
 16 17  1  0
 17 18  1  0
M  END
$$$$
