
     RDKit          3D

 18 17  0  0  0  0  0  0  0  0999 V2000
   -0.8824   -2.6567  -17.3345 C   0  0  0  0  0  0  0  0  0  0  0  0
   -1.3637   -1.6132  -16.7814 O   0  0  0  0  0  0  0  0  0  0  0  0
    0.2691   -2.4781  -18.0809 O   0  0  0  0  0  0  0  0  0  0  0  0
   -1.5168   -3.9752  -17.1836 C   0  0  0  0  0  0  0  0  0  0  0  0
   -2.7619   -3.9138  -16.3417 C   0  0  0  0  0  0  0  0  0  0  0  0
   -3.4368   -5.2480  -16.2581 C   0  0  0  0  0  0  0  0  0  0  0  0
   -4.2467   -5.4688  -17.5071 C   0  0  0  0  0  0  0  0  0  0  0  0
   -5.0482   -6.7197  -17.3852 C   0  0  0  0  0  0  0  0  0  0  0  0
   -5.9561   -6.7720  -18.6226 C   0  0  0  0  0  0  0  0  0  0  0  0
   -6.9232   -7.8916  -18.4242 C   0  0  0  0  0  0  0  0  0  0  0  0
   -7.9606   -8.0166  -19.5186 C   0  0  0  0  0  0  0  0  0  0  0  0
   -8.9226   -9.1318  -18.9963 C   0  0  0  0  0  0  0  0  0  0  0  0
  -10.0886   -9.2607  -19.8915 C   0  0  0  0  0  0  0  0  0  0  0  0
  -11.1351  -10.1867  -19.4255 C   0  0  0  0  0  0  0  0  0  0  0  0
  -11.1840  -11.6025  -19.7979 C   0  0  0  0  0  0  0  0  0  0  0  0
  -11.8997  -12.0586  -21.0033 C   0  0  0  0  0  0  0  0  0  0  0  0
  -13.3905  -12.3523  -20.6404 C   0  0  0  0  0  0  0  0  0  0  0  0
  -13.6465  -13.7581  -21.1194 C   0  0  0  0  0  0  0  0  0  0  0  0
  1  2  2  0
  1  3  1  0
  1  4  1  0
  4  5  1  0
  5  6  1  0
  6  7  1  0
  7  8  1  0
  8  9  1  0
  9 10  1  0
 10 11  1  0
 11 12  1  0
 12 13  1  0
 13 14  1  0
 14 15  1  0
 15 16  1  0
 16 17  1  0
 17 18  1  0
M  END
$$$$
