
     RDKit          3D

 18 17  0  0  0  0  0  0  0  0999 V2000
   -1.1814   -1.2011  -16.4526 C   0  0  0  0  0  0  0  0  0  0  0  0
   -2.2038   -0.7902  -15.8104 O   0  0  0  0  0  0  0  0  0  0  0  0
    0.0492   -0.7869  -15.9742 O   0  0  0  0  0  0  0  0  0  0  0  0
   -1.3067   -2.0686  -17.6339 C   0  0  0  0  0  0  0  0  0  0  0  0
   -2.7405   -2.3980  -17.9477 C   0  0  0  0  0  0  0  0  0  0  0  0
   -3.2885   -3.4257  -17.0064 C   0  0  0  0  0  0  0  0  0  0  0  0
   -4.4893   -4.0789  -17.6358 C   0  0  0  0  0  0  0  0  0  0  0  0
   -4.6472   -5.4687  -17.1205 C   0  0  0  0  0  0  0  0  0  0  0  0
   -5.9278   -6.0231  -17.7616 C   0  0  0  0  0  0  0  0  0  0  0  0
   -6.0443   -7.4577  -17.3661 C   0  0  0  0  0  0  0  0  0  0  0  0
   -6.6303   -8.3509  -18.4377 C   0  0  0  0  0  0  0  0  0  0  0  0
   -8.1561   -8.3859  -18.1020 C   0  0  0  0  0  0  0  0  0  0  0  0
   -8.8604   -9.3000  -19.0218 C   0  0  0  0  0  0  0  0  0  0  0  0
  -10.2841   -9.5211  -18.7148 C   0  0  0  0  0  0  0  0  0  0  0  0
  -11.1460  -10.4194  -19.4868 C   0  0  0  0  0  0  0  0  0  0  0  0
  -12.5450  -10.6703  -19.0961 C   0  0  0  0  0  0  0  0  0  0  0  0
  -13.1479  -11.7816  -20.0137 C   0  0  0  0  0  0  0  0  0  0  0  0
  -14.5416  -11.3123  -20.3431 C   0  0  0  0  0  0  0  0  0  0  0  0
  1  2  2  0
  1  3  1  0
  1  4  1  0
  4  5  1  0
  5  6  1  0
  6  7  1  0
  7  8  1  0
  8  9  1  0
  9 10  1  0
 10 11  1  0
 11 12  1  0
 12 13  1  0
 13 14  1  0
 14 15  1  0
 15 16  1  0
 16 17  1  0
 17 18  1  0
M  END
$$$$
