
     RDKit          3D

 18 17  0  0  0  0  0  0  0  0999 V2000
   -1.8176   -1.4586  -17.6368 C   0  0  0  0  0  0  0  0  0  0  0  0
   -2.5498   -0.7420  -16.8772 O   0  0  0  0  0  0  0  0  0  0  0  0
   -1.1018   -0.7846  -18.6106 O   0  0  0  0  0  0  0  0  0  0  0  0
   -1.7389   -2.9193  -17.4822 C   0  0  0  0  0  0  0  0  0  0  0  0
   -2.6102   -3.4202  -16.3630 C   0  0  0  0  0  0  0  0  0  0  0  0
   -3.8893   -4.0033  -16.8793 C   0  0  0  0  0  0  0  0  0  0  0  0
   -3.9101   -5.4795  -16.5876 C   0  0  0  0  0  0  0  0  0  0  0  0
   -4.6413   -6.2057  -17.6647 C   0  0  0  0  0  0  0  0  0  0  0  0
   -5.9901   -6.6256  -17.0623 C   0  0  0  0  0  0  0  0  0  0  0  0
   -6.7044   -7.4449  -18.0853 C   0  0  0  0  0  0  0  0  0  0  0  0
   -8.0335   -7.9981  -17.6194 C   0  0  0  0  0  0  0  0  0  0  0  0
   -8.5684   -8.7813  -18.8613 C   0  0  0  0  0  0  0  0  0  0  0  0
   -9.8695   -9.4042  -18.5505 C   0  0  0  0  0  0  0  0  0  0  0  0
  -10.3938  -10.3080  -19.5889 C   0  0  0  0  0  0  0  0  0  0  0  0
  -11.6180  -11.0964  -19.4292 C   0  0  0  0  0  0  0  0  0  0  0  0
  -12.7269  -11.0032  -20.3961 C   0  0  0  0  0  0  0  0  0  0  0  0
  -13.9717  -11.7595  -19.8312 C   0  0  0  0  0  0  0  0  0  0  0  0
  -14.2264  -12.8850  -20.8005 C   0  0  0  0  0  0  0  0  0  0  0  0
  1  2  2  0
  1  3  1  0
  1  4  1  0
  4  5  1  0
  5  6  1  0
  6  7  1  0
  7  8  1  0
  8  9  1  0
  9 10  1  0
 10 11  1  0
 11 12  1  0
 12 13  1  0
 13 14  1  0
 14 15  1  0
 15 16  1  0
 16 17  1  0
 17 18  1  0
M  END
$$$$
