
     RDKit          3D

 18 17  0  0  0  0  0  0  0  0999 V2000
   -1.4148   -1.8947  -16.8787 C   0  0  0  0  0  0  0  0  0  0  0  0
   -0.6194   -1.5573  -15.9406 O   0  0  0  0  0  0  0  0  0  0  0  0
   -2.6139   -1.2070  -16.9417 O   0  0  0  0  0  0  0  0  0  0  0  0
   -1.0727   -2.9545  -17.8397 C   0  0  0  0  0  0  0  0  0  0  0  0
   -2.2788   -3.7457  -18.2666 C   0  0  0  0  0  0  0  0  0  0  0  0
   -3.1920   -4.0238  -17.1128 C   0  0  0  0  0  0  0  0  0  0  0  0
   -3.6432   -5.4580  -17.1770 C   0  0  0  0  0  0  0  0  0  0  0  0
   -4.9173   -5.5618  -17.9437 C   0  0  0  0  0  0  0  0  0  0  0  0
   -5.6089   -6.8443  -17.4587 C   0  0  0  0  0  0  0  0  0  0  0  0
   -6.9078   -6.9576  -18.1854 C   0  0  0  0  0  0  0  0  0  0  0  0
   -7.6866   -8.2164  -17.8714 C   0  0  0  0  0  0  0  0  0  0  0  0
   -9.1074   -7.9328  -18.4569 C   0  0  0  0  0  0  0  0  0  0  0  0
   -9.9952   -9.0885  -18.2250 C   0  0  0  0  0  0  0  0  0  0  0  0
  -10.4699   -9.7664  -19.4436 C   0  0  0  0  0  0  0  0  0  0  0  0
  -11.8873   -9.9486  -19.7655 C   0  0  0  0  0  0  0  0  0  0  0  0
  -12.5743  -11.2303  -19.5242 C   0  0  0  0  0  0  0  0  0  0  0  0
  -13.0839  -11.8088  -20.8829 C   0  0  0  0  0  0  0  0  0  0  0  0
  -13.5001  -13.2253  -20.5806 C   0  0  0  0  0  0  0  0  0  0  0  0
  1  2  2  0
  1  3  1  0
  1  4  1  0
  4  5  1  0
  5  6  1  0
  6  7  1  0
  7  8  1  0
  8  9  1  0
  9 10  1  0
 10 11  1  0
 11 12  1  0
 12 13  1  0
 13 14  1  0
 14 15  1  0
 15 16  1  0
 16 17  1  0
 17 18  1  0
M  END
$$$$
