
     RDKit          3D

 18 17  0  0  0  0  0  0  0  0999 V2000
   -2.4371   -4.4780  -18.7688 C   0  0  0  0  0  0  0  0  0  0  0  0
   -2.3803   -5.7477  -18.6625 O   0  0  0  0  0  0  0  0  0  0  0  0
   -1.2269   -3.8074  -18.7511 O   0  0  0  0  0  0  0  0  0  0  0  0
   -3.7190   -3.7694  -18.9047 C   0  0  0  0  0  0  0  0  0  0  0  0
   -4.8716   -4.7140  -19.1101 C   0  0  0  0  0  0  0  0  0  0  0  0
   -4.6525   -5.6010  -20.2965 C   0  0  0  0  0  0  0  0  0  0  0  0
   -5.9747   -6.1679  -20.7379 C   0  0  0  0  0  0  0  0  0  0  0  0
   -6.2250   -7.4732  -20.0629 C   0  0  0  0  0  0  0  0  0  0  0  0
   -7.7350   -7.7314  -20.1704 C   0  0  0  0  0  0  0  0  0  0  0  0
   -8.1414   -8.5291  -18.9760 C   0  0  0  0  0  0  0  0  0  0  0  0
   -9.4633   -8.1100  -18.3706 C   0  0  0  0  0  0  0  0  0  0  0  0
   -9.6205   -9.0477  -17.1305 C   0  0  0  0  0  0  0  0  0  0  0  0
  -10.8360   -8.6927  -16.3728 C   0  0  0  0  0  0  0  0  0  0  0  0
  -11.1209   -9.5512  -15.2102 C   0  0  0  0  0  0  0  0  0  0  0  0
  -11.3619   -9.0305  -13.8623 C   0  0  0  0  0  0  0  0  0  0  0  0
  -10.2649   -8.8675  -12.8911 C   0  0  0  0  0  0  0  0  0  0  0  0
  -10.8271   -9.0301  -11.4427 C   0  0  0  0  0  0  0  0  0  0  0  0
  -10.4684   -7.7509  -10.7313 C   0  0  0  0  0  0  0  0  0  0  0  0
  1  2  2  0
  1  3  1  0
  1  4  1  0
  4  5  1  0
  5  6  1  0
  6  7  1  0
  7  8  1  0
  8  9  1  0
  9 10  1  0
 10 11  1  0
 11 12  1  0
 12 13  1  0
 13 14  1  0
 14 15  1  0
 15 16  1  0
 16 17  1  0
 17 18  1  0
M  END
$$$$
