
     RDKit          3D

 18 17  0  0  0  0  0  0  0  0999 V2000
   -1.6023   -1.8602  -18.3381 C   0  0  0  0  0  0  0  0  0  0  0  0
   -0.8617   -1.7126  -19.3659 O   0  0  0  0  0  0  0  0  0  0  0  0
   -2.5279   -0.8591  -18.1017 O   0  0  0  0  0  0  0  0  0  0  0  0
   -1.4786   -3.0313  -17.4568 C   0  0  0  0  0  0  0  0  0  0  0  0
   -2.8107   -3.6663  -17.1650 C   0  0  0  0  0  0  0  0  0  0  0  0
   -2.6721   -5.1288  -16.8745 C   0  0  0  0  0  0  0  0  0  0  0  0
   -3.9999   -5.6669  -16.4139 C   0  0  0  0  0  0  0  0  0  0  0  0
   -4.6704   -6.4002  -17.5251 C   0  0  0  0  0  0  0  0  0  0  0  0
   -6.1664   -6.4319  -17.1795 C   0  0  0  0  0  0  0  0  0  0  0  0
   -6.8284   -7.3715  -18.1319 C   0  0  0  0  0  0  0  0  0  0  0  0
   -8.3003   -7.5945  -17.8609 C   0  0  0  0  0  0  0  0  0  0  0  0
   -8.7374   -8.5995  -18.9749 C   0  0  0  0  0  0  0  0  0  0  0  0
  -10.1840   -8.4730  -19.2376 C   0  0  0  0  0  0  0  0  0  0  0  0
  -10.7026   -9.3395  -20.3101 C   0  0  0  0  0  0  0  0  0  0  0  0
  -11.1537  -10.7154  -20.0885 C   0  0  0  0  0  0  0  0  0  0  0  0
  -12.4403  -11.2002  -20.6202 C   0  0  0  0  0  0  0  0  0  0  0  0
  -12.6475  -12.6896  -20.1970 C   0  0  0  0  0  0  0  0  0  0  0  0
  -13.9330  -13.1155  -20.8584 C   0  0  0  0  0  0  0  0  0  0  0  0
  1  2  2  0
  1  3  1  0
  1  4  1  0
  4  5  1  0
  5  6  1  0
  6  7  1  0
  7  8  1  0
  8  9  1  0
  9 10  1  0
 10 11  1  0
 11 12  1  0
 12 13  1  0
 13 14  1  0
 14 15  1  0
 15 16  1  0
 16 17  1  0
 17 18  1  0
M  END
$$$$
