
     RDKit          3D

 18 17  0  0  0  0  0  0  0  0999 V2000
   -1.1082   -2.8613  -20.1665 C   0  0  0  0  0  0  0  0  0  0  0  0
   -1.8959   -2.8543  -21.1695 O   0  0  0  0  0  0  0  0  0  0  0  0
    0.1958   -2.4671  -20.4093 O   0  0  0  0  0  0  0  0  0  0  0  0
   -1.5641   -3.2643  -18.8273 C   0  0  0  0  0  0  0  0  0  0  0  0
   -3.0394   -3.5562  -18.7931 C   0  0  0  0  0  0  0  0  0  0  0  0
   -3.4853   -3.9821  -17.4284 C   0  0  0  0  0  0  0  0  0  0  0  0
   -4.2091   -5.2971  -17.5354 C   0  0  0  0  0  0  0  0  0  0  0  0
   -5.0990   -5.4912  -16.3553 C   0  0  0  0  0  0  0  0  0  0  0  0
   -5.5481   -6.9593  -16.3911 C   0  0  0  0  0  0  0  0  0  0  0  0
   -6.7244   -7.0479  -17.3057 C   0  0  0  0  0  0  0  0  0  0  0  0
   -7.3673   -8.4167  -17.3587 C   0  0  0  0  0  0  0  0  0  0  0  0
   -8.6227   -8.2052  -18.2648 C   0  0  0  0  0  0  0  0  0  0  0  0
   -9.4349   -9.4365  -18.3073 C   0  0  0  0  0  0  0  0  0  0  0  0
  -10.8177   -9.2571  -18.7823 C   0  0  0  0  0  0  0  0  0  0  0  0
  -11.7825  -10.3541  -18.8904 C   0  0  0  0  0  0  0  0  0  0  0  0
  -12.7645  -10.4119  -19.9883 C   0  0  0  0  0  0  0  0  0  0  0  0
  -12.5857  -11.7507  -20.7732 C   0  0  0  0  0  0  0  0  0  0  0  0
  -13.8273  -12.5527  -20.4790 C   0  0  0  0  0  0  0  0  0  0  0  0
  1  2  2  0
  1  3  1  0
  1  4  1  0
  4  5  1  0
  5  6  1  0
  6  7  1  0
  7  8  1  0
  8  9  1  0
  9 10  1  0
 10 11  1  0
 11 12  1  0
 12 13  1  0
 13 14  1  0
 14 15  1  0
 15 16  1  0
 16 17  1  0
 17 18  1  0
M  END
$$$$
