
     RDKit          3D

 18 17  0  0  0  0  0  0  0  0999 V2000
   -0.8838   -1.8566  -17.1017 C   0  0  0  0  0  0  0  0  0  0  0  0
   -1.4479   -1.3761  -18.1397 O   0  0  0  0  0  0  0  0  0  0  0  0
    0.3742   -1.3628  -16.8046 O   0  0  0  0  0  0  0  0  0  0  0  0
   -1.5376   -2.8768  -16.2678 C   0  0  0  0  0  0  0  0  0  0  0  0
   -2.1049   -4.0031  -17.0880 C   0  0  0  0  0  0  0  0  0  0  0  0
   -3.5862   -4.1257  -16.9056 C   0  0  0  0  0  0  0  0  0  0  0  0
   -4.1180   -5.1487  -17.8728 C   0  0  0  0  0  0  0  0  0  0  0  0
   -5.4124   -5.6986  -17.3786 C   0  0  0  0  0  0  0  0  0  0  0  0
   -5.9688   -6.5742  -18.5109 C   0  0  0  0  0  0  0  0  0  0  0  0
   -7.2204   -7.2154  -18.0103 C   0  0  0  0  0  0  0  0  0  0  0  0
   -7.4592   -8.6107  -18.5449 C   0  0  0  0  0  0  0  0  0  0  0  0
   -9.0146   -8.7595  -18.5195 C   0  0  0  0  0  0  0  0  0  0  0  0
   -9.3931  -10.1820  -18.6238 C   0  0  0  0  0  0  0  0  0  0  0  0
  -10.4980  -10.4682  -19.5551 C   0  0  0  0  0  0  0  0  0  0  0  0
  -11.6962  -11.2219  -19.1782 C   0  0  0  0  0  0  0  0  0  0  0  0
  -12.7810  -11.4784  -20.1428 C   0  0  0  0  0  0  0  0  0  0  0  0
  -13.7667  -12.5330  -19.5456 C   0  0  0  0  0  0  0  0  0  0  0  0
  -14.7359  -12.8450  -20.6567 C   0  0  0  0  0  0  0  0  0  0  0  0
  1  2  2  0
  1  3  1  0
  1  4  1  0
  4  5  1  0
  5  6  1  0
  6  7  1  0
  7  8  1  0
  8  9  1  0
  9 10  1  0
 10 11  1  0
 11 12  1  0
 12 13  1  0
 13 14  1  0
 14 15  1  0
 15 16  1  0
 16 17  1  0
 17 18  1  0
M  END
$$$$
