
     RDKit          3D

 18 17  0  0  0  0  0  0  0  0999 V2000
   -1.3074   -2.6640  -18.3164 C   0  0  0  0  0  0  0  0  0  0  0  0
   -0.3305   -3.4808  -18.3879 O   0  0  0  0  0  0  0  0  0  0  0  0
   -1.6909   -2.0630  -19.5024 O   0  0  0  0  0  0  0  0  0  0  0  0
   -1.9876   -2.3805  -17.0434 C   0  0  0  0  0  0  0  0  0  0  0  0
   -3.2203   -3.2226  -16.8578 C   0  0  0  0  0  0  0  0  0  0  0  0
   -3.0466   -4.5901  -17.4426 C   0  0  0  0  0  0  0  0  0  0  0  0
   -4.0121   -5.5351  -16.7797 C   0  0  0  0  0  0  0  0  0  0  0  0
   -5.2575   -5.6497  -17.5908 C   0  0  0  0  0  0  0  0  0  0  0  0
   -5.7873   -7.0738  -17.3679 C   0  0  0  0  0  0  0  0  0  0  0  0
   -7.1395   -7.1542  -17.9949 C   0  0  0  0  0  0  0  0  0  0  0  0
   -8.0240   -8.2416  -17.4250 C   0  0  0  0  0  0  0  0  0  0  0  0
   -8.7564   -8.8223  -18.6772 C   0  0  0  0  0  0  0  0  0  0  0  0
   -9.6708   -9.9088  -18.2757 C   0  0  0  0  0  0  0  0  0  0  0  0
  -10.8146  -10.1285  -19.1775 C   0  0  0  0  0  0  0  0  0  0  0  0
  -11.8809  -11.0959  -18.9074 C   0  0  0  0  0  0  0  0  0  0  0  0
  -12.9802  -11.3190  -19.8639 C   0  0  0  0  0  0  0  0  0  0  0  0
  -12.9340  -12.7959  -20.3709 C   0  0  0  0  0  0  0  0  0  0  0  0
  -13.4085  -12.7403  -21.8003 C   0  0  0  0  0  0  0  0  0  0  0  0
  1  2  2  0
  1  3  1  0
  1  4  1  0
  4  5  1  0
  5  6  1  0
  6  7  1  0
  7  8  1  0
  8  9  1  0
  9 10  1  0
 10 11  1  0
 11 12  1  0
 12 13  1  0
 13 14  1  0
 14 15  1  0
 15 16  1  0
 16 17  1  0
 17 18  1  0
M  END
$$$$
