
     RDKit          3D

 18 17  0  0  0  0  0  0  0  0999 V2000
   -1.1582   -2.1396  -17.5959 C   0  0  0  0  0  0  0  0  0  0  0  0
   -0.0856   -2.7107  -17.9830 O   0  0  0  0  0  0  0  0  0  0  0  0
   -1.5678   -1.0423  -18.3326 O   0  0  0  0  0  0  0  0  0  0  0  0
   -1.9165   -2.6243  -16.4323 C   0  0  0  0  0  0  0  0  0  0  0  0
   -2.0181   -4.1249  -16.4051 C   0  0  0  0  0  0  0  0  0  0  0  0
   -2.8946   -4.6379  -17.5056 C   0  0  0  0  0  0  0  0  0  0  0  0
   -3.9047   -5.5911  -16.9264 C   0  0  0  0  0  0  0  0  0  0  0  0
   -4.6611   -6.2651  -18.0199 C   0  0  0  0  0  0  0  0  0  0  0  0
   -5.6901   -7.1757  -17.3343 C   0  0  0  0  0  0  0  0  0  0  0  0
   -6.5781   -7.7317  -18.3976 C   0  0  0  0  0  0  0  0  0  0  0  0
   -7.6674   -8.6459  -17.8807 C   0  0  0  0  0  0  0  0  0  0  0  0
   -8.4840   -9.0154  -19.1607 C   0  0  0  0  0  0  0  0  0  0  0  0
   -9.7944   -9.5804  -18.7850 C   0  0  0  0  0  0  0  0  0  0  0  0
  -10.7948   -9.6114  -19.8658 C   0  0  0  0  0  0  0  0  0  0  0  0
  -12.0270  -10.4011  -19.8023 C   0  0  0  0  0  0  0  0  0  0  0  0
  -12.3272  -11.4433  -20.8007 C   0  0  0  0  0  0  0  0  0  0  0  0
  -13.6948  -12.1142  -20.4540 C   0  0  0  0  0  0  0  0  0  0  0  0
  -13.9447  -13.1033  -21.5633 C   0  0  0  0  0  0  0  0  0  0  0  0
  1  2  2  0
  1  3  1  0
  1  4  1  0
  4  5  1  0
  5  6  1  0
  6  7  1  0
  7  8  1  0
  8  9  1  0
  9 10  1  0
 10 11  1  0
 11 12  1  0
 12 13  1  0
 13 14  1  0
 14 15  1  0
 15 16  1  0
 16 17  1  0
 17 18  1  0
M  END
$$$$
