
     RDKit          3D

 18 17  0  0  0  0  0  0  0  0999 V2000
   -1.5521   -2.1687  -17.4511 C   0  0  0  0  0  0  0  0  0  0  0  0
   -0.7809   -2.8807  -16.7267 O   0  0  0  0  0  0  0  0  0  0  0  0
   -1.4006   -0.7975  -17.3425 O   0  0  0  0  0  0  0  0  0  0  0  0
   -2.5443   -2.7743  -18.3525 C   0  0  0  0  0  0  0  0  0  0  0  0
   -3.4189   -3.7737  -17.6459 C   0  0  0  0  0  0  0  0  0  0  0  0
   -2.6901   -5.0552  -17.3834 C   0  0  0  0  0  0  0  0  0  0  0  0
   -3.6886   -6.1283  -17.0427 C   0  0  0  0  0  0  0  0  0  0  0  0
   -4.8361   -6.0827  -17.9931 C   0  0  0  0  0  0  0  0  0  0  0  0
   -5.4806   -7.4761  -17.9576 C   0  0  0  0  0  0  0  0  0  0  0  0
   -6.9362   -7.3060  -18.2415 C   0  0  0  0  0  0  0  0  0  0  0  0
   -7.7805   -8.5136  -17.8975 C   0  0  0  0  0  0  0  0  0  0  0  0
   -8.6750   -8.7170  -19.1626 C   0  0  0  0  0  0  0  0  0  0  0  0
   -9.5153   -9.9199  -19.0058 C   0  0  0  0  0  0  0  0  0  0  0  0
  -10.9670   -9.6831  -19.0860 C   0  0  0  0  0  0  0  0  0  0  0  0
  -11.8258  -10.2770  -20.1133 C   0  0  0  0  0  0  0  0  0  0  0  0
  -12.7393  -11.3921  -19.8045 C   0  0  0  0  0  0  0  0  0  0  0  0
  -12.5962  -12.4974  -20.8992 C   0  0  0  0  0  0  0  0  0  0  0  0
  -13.9301  -12.5382  -21.5994 C   0  0  0  0  0  0  0  0  0  0  0  0
  1  2  2  0
  1  3  1  0
  1  4  1  0
  4  5  1  0
  5  6  1  0
  6  7  1  0
  7  8  1  0
  8  9  1  0
  9 10  1  0
 10 11  1  0
 11 12  1  0
 12 13  1  0
 13 14  1  0
 14 15  1  0
 15 16  1  0
 16 17  1  0
 17 18  1  0
M  END
$$$$
