
     RDKit          3D

 18 17  0  0  0  0  0  0  0  0999 V2000
   -1.7329   -1.7357  -17.9944 C   0  0  0  0  0  0  0  0  0  0  0  0
   -2.0423   -2.3661  -19.0590 O   0  0  0  0  0  0  0  0  0  0  0  0
   -1.2916   -0.4346  -18.1597 O   0  0  0  0  0  0  0  0  0  0  0  0
   -1.8423   -2.3588  -16.6664 C   0  0  0  0  0  0  0  0  0  0  0  0
   -3.0906   -3.1869  -16.5283 C   0  0  0  0  0  0  0  0  0  0  0  0
   -2.9222   -4.5436  -17.1394 C   0  0  0  0  0  0  0  0  0  0  0  0
   -4.0425   -5.4347  -16.6754 C   0  0  0  0  0  0  0  0  0  0  0  0
   -4.8938   -5.8343  -17.8320 C   0  0  0  0  0  0  0  0  0  0  0  0
   -6.2609   -6.2196  -17.2481 C   0  0  0  0  0  0  0  0  0  0  0  0
   -6.7613   -7.3988  -18.0143 C   0  0  0  0  0  0  0  0  0  0  0  0
   -8.2377   -7.6760  -17.8320 C   0  0  0  0  0  0  0  0  0  0  0  0
   -8.5151   -8.8735  -18.7968 C   0  0  0  0  0  0  0  0  0  0  0  0
   -9.9337   -9.2729  -18.7201 C   0  0  0  0  0  0  0  0  0  0  0  0
  -10.3128  -10.4023  -19.5865 C   0  0  0  0  0  0  0  0  0  0  0  0
  -11.6685  -10.9539  -19.6460 C   0  0  0  0  0  0  0  0  0  0  0  0
  -12.0150  -12.0506  -20.5681 C   0  0  0  0  0  0  0  0  0  0  0  0
  -13.5682  -12.1357  -20.7115 C   0  0  0  0  0  0  0  0  0  0  0  0
  -14.0891  -12.2919  -19.3060 C   0  0  0  0  0  0  0  0  0  0  0  0
  1  2  2  0
  1  3  1  0
  1  4  1  0
  4  5  1  0
  5  6  1  0
  6  7  1  0
  7  8  1  0
  8  9  1  0
  9 10  1  0
 10 11  1  0
 11 12  1  0
 12 13  1  0
 13 14  1  0
 14 15  1  0
 15 16  1  0
 16 17  1  0
 17 18  1  0
M  END
$$$$
