
     RDKit          3D

 18 17  0  0  0  0  0  0  0  0999 V2000
   -1.0246   -2.2013  -16.1534 C   0  0  0  0  0  0  0  0  0  0  0  0
   -0.3842   -2.6204  -15.1331 O   0  0  0  0  0  0  0  0  0  0  0  0
   -0.2794   -1.5441  -17.1164 O   0  0  0  0  0  0  0  0  0  0  0  0
   -2.4738   -2.4087  -16.2963 C   0  0  0  0  0  0  0  0  0  0  0  0
   -2.8633   -3.8492  -16.1061 C   0  0  0  0  0  0  0  0  0  0  0  0
   -2.6028   -4.6579  -17.3392 C   0  0  0  0  0  0  0  0  0  0  0  0
   -3.8736   -4.7594  -18.1387 C   0  0  0  0  0  0  0  0  0  0  0  0
   -4.6852   -5.9179  -17.6685 C   0  0  0  0  0  0  0  0  0  0  0  0
   -5.6986   -6.2150  -18.7834 C   0  0  0  0  0  0  0  0  0  0  0  0
   -6.5468   -7.3559  -18.3284 C   0  0  0  0  0  0  0  0  0  0  0  0
   -7.6634   -7.7181  -19.2831 C   0  0  0  0  0  0  0  0  0  0  0  0
   -8.4002   -8.8955  -18.5671 C   0  0  0  0  0  0  0  0  0  0  0  0
   -9.6794   -9.1843  -19.2438 C   0  0  0  0  0  0  0  0  0  0  0  0
  -10.4086  -10.3559  -18.7286 C   0  0  0  0  0  0  0  0  0  0  0  0
  -11.7056  -10.7928  -19.2509 C   0  0  0  0  0  0  0  0  0  0  0  0
  -12.0972  -12.2140  -19.2523 C   0  0  0  0  0  0  0  0  0  0  0  0
  -12.9243  -12.5221  -20.5413 C   0  0  0  0  0  0  0  0  0  0  0  0
  -14.0286  -13.4449  -20.0937 C   0  0  0  0  0  0  0  0  0  0  0  0
  1  2  2  0
  1  3  1  0
  1  4  1  0
  4  5  1  0
  5  6  1  0
  6  7  1  0
  7  8  1  0
  8  9  1  0
  9 10  1  0
 10 11  1  0
 11 12  1  0
 12 13  1  0
 13 14  1  0
 14 15  1  0
 15 16  1  0
 16 17  1  0
 17 18  1  0
M  END
$$$$
