
     RDKit          3D

 18 17  0  0  0  0  0  0  0  0999 V2000
   -1.7411   -1.5525  -16.5326 C   0  0  0  0  0  0  0  0  0  0  0  0
   -0.7197   -2.1383  -16.0425 O   0  0  0  0  0  0  0  0  0  0  0  0
   -2.0440   -0.3085  -16.0078 O   0  0  0  0  0  0  0  0  0  0  0  0
   -2.5484   -2.1667  -17.5978 C   0  0  0  0  0  0  0  0  0  0  0  0
   -2.0174   -3.5127  -18.0091 C   0  0  0  0  0  0  0  0  0  0  0  0
   -2.7014   -4.6232  -17.2733 C   0  0  0  0  0  0  0  0  0  0  0  0
   -3.9459   -5.0166  -18.0223 C   0  0  0  0  0  0  0  0  0  0  0  0
   -4.6047   -6.1736  -17.3520 C   0  0  0  0  0  0  0  0  0  0  0  0
   -5.5239   -6.8139  -18.4024 C   0  0  0  0  0  0  0  0  0  0  0  0
   -6.7320   -7.3262  -17.6910 C   0  0  0  0  0  0  0  0  0  0  0  0
   -7.0286   -8.7880  -17.9457 C   0  0  0  0  0  0  0  0  0  0  0  0
   -8.4117   -8.7676  -18.6728 C   0  0  0  0  0  0  0  0  0  0  0  0
   -9.3135   -9.7757  -18.0829 C   0  0  0  0  0  0  0  0  0  0  0  0
  -10.6378   -9.8787  -18.7198 C   0  0  0  0  0  0  0  0  0  0  0  0
  -11.2559  -11.1527  -19.0949 C   0  0  0  0  0  0  0  0  0  0  0  0
  -12.7175  -11.2913  -19.2271 C   0  0  0  0  0  0  0  0  0  0  0  0
  -13.0625  -11.7902  -20.6667 C   0  0  0  0  0  0  0  0  0  0  0  0
  -14.5653  -11.7260  -20.7601 C   0  0  0  0  0  0  0  0  0  0  0  0
  1  2  2  0
  1  3  1  0
  1  4  1  0
  4  5  1  0
  5  6  1  0
  6  7  1  0
  7  8  1  0
  8  9  1  0
  9 10  1  0
 10 11  1  0
 11 12  1  0
 12 13  1  0
 13 14  1  0
 14 15  1  0
 15 16  1  0
 16 17  1  0
 17 18  1  0
M  END
$$$$
