
     RDKit          3D

 18 17  0  0  0  0  0  0  0  0999 V2000
   -1.1605   -1.9478  -17.8863 C   0  0  0  0  0  0  0  0  0  0  0  0
   -2.0016   -1.2260  -18.5173 O   0  0  0  0  0  0  0  0  0  0  0  0
    0.1735   -1.6184  -18.0503 O   0  0  0  0  0  0  0  0  0  0  0  0
   -1.5879   -3.0655  -17.0310 C   0  0  0  0  0  0  0  0  0  0  0  0
   -3.0811   -3.2479  -17.0379 C   0  0  0  0  0  0  0  0  0  0  0  0
   -3.4788   -4.5097  -17.7394 C   0  0  0  0  0  0  0  0  0  0  0  0
   -4.5123   -5.2270  -16.9136 C   0  0  0  0  0  0  0  0  0  0  0  0
   -5.0174   -6.4221  -17.6477 C   0  0  0  0  0  0  0  0  0  0  0  0
   -5.9765   -7.1430  -16.6892 C   0  0  0  0  0  0  0  0  0  0  0  0
   -6.5222   -8.3317  -17.4083 C   0  0  0  0  0  0  0  0  0  0  0  0
   -7.8012   -8.0624  -18.1707 C   0  0  0  0  0  0  0  0  0  0  0  0
   -8.4031   -9.4852  -18.4055 C   0  0  0  0  0  0  0  0  0  0  0  0
   -9.4374   -9.4348  -19.4569 C   0  0  0  0  0  0  0  0  0  0  0  0
  -10.6598  -10.2047  -19.1686 C   0  0  0  0  0  0  0  0  0  0  0  0
  -11.6258  -10.5997  -20.1965 C   0  0  0  0  0  0  0  0  0  0  0  0
  -11.8967  -12.0174  -20.4960 C   0  0  0  0  0  0  0  0  0  0  0  0
  -13.4196  -12.3062  -20.3016 C   0  0  0  0  0  0  0  0  0  0  0  0
  -14.0743  -10.9510  -20.2242 C   0  0  0  0  0  0  0  0  0  0  0  0
  1  2  2  0
  1  3  1  0
  1  4  1  0
  4  5  1  0
  5  6  1  0
  6  7  1  0
  7  8  1  0
  8  9  1  0
  9 10  1  0
 10 11  1  0
 11 12  1  0
 12 13  1  0
 13 14  1  0
 14 15  1  0
 15 16  1  0
 16 17  1  0
 17 18  1  0
M  END
$$$$
