
     RDKit          3D

 18 17  0  0  0  0  0  0  0  0999 V2000
   -0.8543   -1.8053  -17.3733 C   0  0  0  0  0  0  0  0  0  0  0  0
   -1.7504   -0.9874  -16.9800 O   0  0  0  0  0  0  0  0  0  0  0  0
    0.1684   -1.2717  -18.1377 O   0  0  0  0  0  0  0  0  0  0  0  0
   -0.9066   -3.2346  -17.0299 C   0  0  0  0  0  0  0  0  0  0  0  0
   -2.2613   -3.6483  -16.5235 C   0  0  0  0  0  0  0  0  0  0  0  0
   -3.0874   -4.2716  -17.6059 C   0  0  0  0  0  0  0  0  0  0  0  0
   -3.6031   -5.6018  -17.1271 C   0  0  0  0  0  0  0  0  0  0  0  0
   -5.0846   -5.6637  -17.2802 C   0  0  0  0  0  0  0  0  0  0  0  0
   -5.4090   -7.0857  -17.7608 C   0  0  0  0  0  0  0  0  0  0  0  0
   -6.8925   -7.1897  -17.8897 C   0  0  0  0  0  0  0  0  0  0  0  0
   -7.3827   -8.5504  -18.3346 C   0  0  0  0  0  0  0  0  0  0  0  0
   -8.9298   -8.3685  -18.4575 C   0  0  0  0  0  0  0  0  0  0  0  0
   -9.5557   -9.6210  -18.9235 C   0  0  0  0  0  0  0  0  0  0  0  0
  -11.0228   -9.5775  -19.0494 C   0  0  0  0  0  0  0  0  0  0  0  0
  -11.8475  -10.7641  -19.2897 C   0  0  0  0  0  0  0  0  0  0  0  0
  -12.0984  -11.2656  -20.6530 C   0  0  0  0  0  0  0  0  0  0  0  0
  -13.3450  -12.2069  -20.6375 C   0  0  0  0  0  0  0  0  0  0  0  0
  -12.8926  -13.4767  -21.3114 C   0  0  0  0  0  0  0  0  0  0  0  0
  1  2  2  0
  1  3  1  0
  1  4  1  0
  4  5  1  0
  5  6  1  0
  6  7  1  0
  7  8  1  0
  8  9  1  0
  9 10  1  0
 10 11  1  0
 11 12  1  0
 12 13  1  0
 13 14  1  0
 14 15  1  0
 15 16  1  0
 16 17  1  0
 17 18  1  0
M  END
$$$$
