
     RDKit          3D

 18 17  0  0  0  0  0  0  0  0999 V2000
   -1.2790   -1.6035  -16.9344 C   0  0  0  0  0  0  0  0  0  0  0  0
   -1.2208   -1.7183  -15.6655 O   0  0  0  0  0  0  0  0  0  0  0  0
   -1.1546   -0.3212  -17.4394 O   0  0  0  0  0  0  0  0  0  0  0  0
   -1.4658   -2.7711  -17.8093 C   0  0  0  0  0  0  0  0  0  0  0  0
   -1.6108   -4.0488  -17.0288 C   0  0  0  0  0  0  0  0  0  0  0  0
   -3.0425   -4.3284  -16.6905 C   0  0  0  0  0  0  0  0  0  0  0  0
   -3.4154   -5.6889  -17.2146 C   0  0  0  0  0  0  0  0  0  0  0  0
   -4.8407   -5.9886  -16.8974 C   0  0  0  0  0  0  0  0  0  0  0  0
   -5.4470   -6.5962  -18.1708 C   0  0  0  0  0  0  0  0  0  0  0  0
   -6.6067   -7.4407  -17.7585 C   0  0  0  0  0  0  0  0  0  0  0  0
   -7.3330   -8.1018  -18.9095 C   0  0  0  0  0  0  0  0  0  0  0  0
   -8.5296   -8.8366  -18.2239 C   0  0  0  0  0  0  0  0  0  0  0  0
   -9.3584   -9.5181  -19.2369 C   0  0  0  0  0  0  0  0  0  0  0  0
  -10.4455  -10.3525  -18.6967 C   0  0  0  0  0  0  0  0  0  0  0  0
  -11.1643  -11.3533  -19.4889 C   0  0  0  0  0  0  0  0  0  0  0  0
  -12.6254  -11.2869  -19.6729 C   0  0  0  0  0  0  0  0  0  0  0  0
  -13.1329  -12.6342  -20.2794 C   0  0  0  0  0  0  0  0  0  0  0  0
  -14.4294  -12.2960  -20.9694 C   0  0  0  0  0  0  0  0  0  0  0  0
  1  2  2  0
  1  3  1  0
  1  4  1  0
  4  5  1  0
  5  6  1  0
  6  7  1  0
  7  8  1  0
  8  9  1  0
  9 10  1  0
 10 11  1  0
 11 12  1  0
 12 13  1  0
 13 14  1  0
 14 15  1  0
 15 16  1  0
 16 17  1  0
 17 18  1  0
M  END
$$$$
