
     RDKit          3D

 18 17  0  0  0  0  0  0  0  0999 V2000
   -1.6811   -1.5756  -17.5394 C   0  0  0  0  0  0  0  0  0  0  0  0
   -2.4921   -0.9501  -16.7793 O   0  0  0  0  0  0  0  0  0  0  0  0
   -0.3349   -1.4141  -17.2632 O   0  0  0  0  0  0  0  0  0  0  0  0
   -2.1538   -2.4224  -18.6454 C   0  0  0  0  0  0  0  0  0  0  0  0
   -2.2477   -3.8713  -18.2518 C   0  0  0  0  0  0  0  0  0  0  0  0
   -2.8793   -4.0364  -16.9041 C   0  0  0  0  0  0  0  0  0  0  0  0
   -3.4386   -5.4288  -16.7901 C   0  0  0  0  0  0  0  0  0  0  0  0
   -4.7285   -5.5265  -17.5309 C   0  0  0  0  0  0  0  0  0  0  0  0
   -5.1670   -6.9955  -17.4406 C   0  0  0  0  0  0  0  0  0  0  0  0
   -6.4938   -7.1113  -18.1146 C   0  0  0  0  0  0  0  0  0  0  0  0
   -7.1688   -8.4528  -17.9291 C   0  0  0  0  0  0  0  0  0  0  0  0
   -8.5042   -8.3130  -18.7284 C   0  0  0  0  0  0  0  0  0  0  0  0
   -9.3098   -9.5422  -18.5957 C   0  0  0  0  0  0  0  0  0  0  0  0
  -10.6176   -9.5087  -19.2729 C   0  0  0  0  0  0  0  0  0  0  0  0
  -11.4053  -10.7083  -19.5663 C   0  0  0  0  0  0  0  0  0  0  0  0
  -12.7085  -10.6269  -20.2505 C   0  0  0  0  0  0  0  0  0  0  0  0
  -13.3479  -12.0506  -20.3183 C   0  0  0  0  0  0  0  0  0  0  0  0
  -13.4872  -12.3541  -21.7879 C   0  0  0  0  0  0  0  0  0  0  0  0
  1  2  2  0
  1  3  1  0
  1  4  1  0
  4  5  1  0
  5  6  1  0
  6  7  1  0
  7  8  1  0
  8  9  1  0
  9 10  1  0
 10 11  1  0
 11 12  1  0
 12 13  1  0
 13 14  1  0
 14 15  1  0
 15 16  1  0
 16 17  1  0
 17 18  1  0
M  END
$$$$
