
     RDKit          3D

 34 37  0  0  0  0  0  0  0  0999 V2000
   21.6970   25.3830   53.1088 C   0  0  0  0  0  0  0  0  0  0  0  0
   21.9402   23.6807   56.0786 C   0  0  0  0  0  0  0  0  0  0  0  0
   24.2142   23.0114   55.2534 C   0  0  0  0  0  0  0  0  0  0  0  0
   24.3373   22.6381   52.9150 C   0  0  2  0  0  0  0  0  0  0  0  0
   19.6989   28.2308   56.2930 C   0  0  0  0  0  0  0  0  0  0  0  0
   18.3699   28.1599   54.2112 C   0  0  0  0  0  0  0  0  0  0  0  0
   16.0054   27.8263   54.1573 C   0  0  0  0  0  0  0  0  0  0  0  0
   14.8220   27.8752   52.0203 C   0  0  0  0  0  0  0  0  0  0  0  0
   20.2873   23.3859   48.7584 O   0  0  0  0  0  0  0  0  0  0  0  0
   20.0096   23.8235   50.0701 C   0  0  0  0  0  0  0  0  0  0  0  0
   21.0386   24.3304   50.8864 C   0  0  0  0  0  0  0  0  0  0  0  0
   22.3770   24.3218   50.2567 C   0  0  0  0  0  0  0  0  0  0  0  0
   23.5062   23.6965   50.7692 O   0  0  0  0  0  0  0  0  0  0  0  0
   23.9168   22.3669   50.5627 C   0  0  2  0  0  0  0  0  0  0  0  0
   22.8476   21.3998   50.2104 C   0  0  0  0  0  0  0  0  0  0  0  0
   22.3759   24.9832   49.1397 O   0  0  0  0  0  0  0  0  0  0  0  0
   20.7278   24.7487   52.1358 C   0  0  0  0  0  0  0  0  0  0  0  0
   21.0866   25.4235   54.4595 C   0  0  0  0  0  0  0  0  0  0  0  0
   21.0374   24.3820   55.4552 C   0  0  0  0  0  0  0  0  0  0  0  0
   23.3834   23.6472   56.0339 C   0  0  0  0  0  0  0  0  0  0  0  0
   23.9020   22.0875   54.1275 C   0  0  2  0  0  0  0  0  0  0  0  0
   22.9042   22.4066   53.2513 O   0  0  0  0  0  0  0  0  0  0  0  0
   24.7121   21.7843   51.7345 C   0  0  0  0  0  0  0  0  0  0  0  0
   20.5279   26.6061   54.6769 N   0  0  0  0  0  0  0  0  0  0  0  0
   20.6203   27.2779   55.8562 O   0  0  0  0  0  0  0  0  0  0  0  0
   18.4185   28.0884   55.5937 C   0  0  0  0  0  0  0  0  0  0  0  0
   17.1911   28.0318   53.5102 C   0  0  0  0  0  0  0  0  0  0  0  0
   14.8379   27.7019   53.4200 O   0  0  0  0  0  0  0  0  0  0  0  0
   16.0194   27.7500   55.5362 C   0  0  0  0  0  0  0  0  0  0  0  0
   17.2123   27.8802   56.2351 C   0  0  0  0  0  0  0  0  0  0  0  0
   19.3992   24.6584   52.5732 C   0  0  0  0  0  0  0  0  0  0  0  0
   18.4172   24.1549   51.7498 C   0  0  0  0  0  0  0  0  0  0  0  0
   17.1082   24.0686   52.1903 O   0  0  0  0  0  0  0  0  0  0  0  0
   18.6986   23.7253   50.4765 C   0  0  0  0  0  0  0  0  0  0  0  0
  1 17  1  0
  1 18  1  6
 19  2  2  0
  2 20  1  0
 20  3  2  0
  3 21  1  0
 21  4  1  0
  4 22  1  6
  4 23  1  0
  5 25  1  1
  5 26  1  0
 26  6  2  0
  6 27  1  0
 27  7  2  0
  7 28  1  0
  7 29  1  0
  8 28  1  6
 10  9  1  0
 11 10  2  0
 10 34  1  0
 11 12  1  0
 17 11  1  0
 12 13  1  0
 12 16  2  0
 14 13  1  1
 15 14  1  6
 23 14  1  6
 17 31  2  0
 18 19  1  0
 24 18  2  0
 21 22  1  6
 24 25  1  0
 26 30  1  0
 29 30  2  0
 31 32  1  0
 32 33  1  0
 32 34  2  0
M  END
$$$$
