
     RDKit          3D

 34 37  0  0  0  0  0  0  0  0999 V2000
   21.2831   25.7645   53.0714 C   0  0  0  0  0  0  0  0  0  0  0  0
   21.4930   24.0872   56.0579 C   0  0  0  0  0  0  0  0  0  0  0  0
   23.7521   23.3628   55.2384 C   0  0  0  0  0  0  0  0  0  0  0  0
   23.8659   22.9637   52.9038 C   0  0  2  0  0  0  0  0  0  0  0  0
   17.8717   27.8029   55.0626 C   0  0  0  0  0  0  0  0  0  0  0  0
   19.1897   27.8696   57.1515 C   0  0  0  0  0  0  0  0  0  0  0  0
   18.6614   26.5858   59.0953 C   0  0  0  0  0  0  0  0  0  0  0  0
   17.9948   25.6442   61.2490 C   0  0  0  0  0  0  0  0  0  0  0  0
   19.8297   23.7538   48.7418 O   0  0  0  0  0  0  0  0  0  0  0  0
   19.5619   24.2101   50.0492 C   0  0  0  0  0  0  0  0  0  0  0  0
   20.6017   24.7036   50.8599 C   0  0  0  0  0  0  0  0  0  0  0  0
   21.9392   24.6611   50.2297 C   0  0  0  0  0  0  0  0  0  0  0  0
   23.0556   24.0177   50.7479 O   0  0  0  0  0  0  0  0  0  0  0  0
   23.4384   22.6779   50.5546 C   0  0  2  0  0  0  0  0  0  0  0  0
   22.3491   21.7296   50.2124 C   0  0  0  0  0  0  0  0  0  0  0  0
   21.9510   25.3112   49.1062 O   0  0  0  0  0  0  0  0  0  0  0  0
   20.3004   25.1408   52.1052 C   0  0  0  0  0  0  0  0  0  0  0  0
   20.6746   25.8311   54.4219 C   0  0  0  0  0  0  0  0  0  0  0  0
   20.6045   24.8009   55.4280 C   0  0  0  0  0  0  0  0  0  0  0  0
   22.9352   24.0234   56.0130 C   0  0  0  0  0  0  0  0  0  0  0  0
   23.4201   22.4344   54.1219 C   0  0  2  0  0  0  0  0  0  0  0  0
   22.4286   22.7653   53.2430 O   0  0  0  0  0  0  0  0  0  0  0  0
   24.2222   22.0906   51.7318 C   0  0  0  0  0  0  0  0  0  0  0  0
   20.1406   27.0271   54.6277 N   0  0  0  0  0  0  0  0  0  0  0  0
   18.8934   27.3772   54.2124 O   0  0  0  0  0  0  0  0  0  0  0  0
   18.1132   27.3651   56.4406 C   0  0  0  0  0  0  0  0  0  0  0  0
   19.4569   27.4886   58.4480 C   0  0  0  0  0  0  0  0  0  0  0  0
   18.9600   26.2250   60.4002 O   0  0  0  0  0  0  0  0  0  0  0  0
   17.5794   26.0636   58.4141 C   0  0  0  0  0  0  0  0  0  0  0  0
   17.3172   26.4532   57.1072 C   0  0  0  0  0  0  0  0  0  0  0  0
   18.9705   25.0823   52.5441 C   0  0  0  0  0  0  0  0  0  0  0  0
   17.9778   24.5911   51.7262 C   0  0  0  0  0  0  0  0  0  0  0  0
   16.6675   24.5364   52.1680 O   0  0  0  0  0  0  0  0  0  0  0  0
   18.2493   24.1431   50.4571 C   0  0  0  0  0  0  0  0  0  0  0  0
  1 17  1  0
  1 18  1  6
 19  2  2  0
  2 20  1  0
 20  3  2  0
  3 21  1  0
 21  4  1  0
  4 22  1  6
  4 23  1  0
  5 25  1  1
  5 26  1  0
 26  6  2  0
  6 27  1  0
 27  7  2  0
  7 28  1  0
  7 29  1  0
  8 28  1  6
 10  9  1  0
 11 10  2  0
 10 34  1  0
 11 12  1  0
 17 11  1  0
 12 13  1  0
 12 16  2  0
 14 13  1  1
 15 14  1  6
 23 14  1  6
 17 31  2  0
 18 19  1  0
 24 18  2  0
 21 22  1  6
 24 25  1  0
 26 30  1  0
 29 30  2  0
 31 32  1  0
 32 33  1  0
 32 34  2  0
M  END
$$$$
