
     RDKit          3D

 34 37  0  0  0  0  0  0  0  0999 V2000
   20.8173   24.8867   53.4788 C   0  0  0  0  0  0  0  0  0  0  0  0
   18.3036   26.4630   55.2030 C   0  0  0  0  0  0  0  0  0  0  0  0
   17.0190   24.3388   54.8323 C   0  0  0  0  0  0  0  0  0  0  0  0
   17.4300   23.2971   52.7422 C   0  0  2  0  0  0  0  0  0  0  0  0
   23.7087   25.5968   56.4534 C   0  0  0  0  0  0  0  0  0  0  0  0
   23.3186   24.2859   58.5112 C   0  0  0  0  0  0  0  0  0  0  0  0
   23.2567   25.2398   60.7002 C   0  0  0  0  0  0  0  0  0  0  0  0
   23.2328   26.1490   62.9679 C   0  0  0  0  0  0  0  0  0  0  0  0
   21.2161   24.7028   48.5080 O   0  0  0  0  0  0  0  0  0  0  0  0
   21.2677   25.4028   49.7313 C   0  0  0  0  0  0  0  0  0  0  0  0
   20.9668   24.7489   50.9412 C   0  0  0  0  0  0  0  0  0  0  0  0
   20.5801   23.3294   50.7877 C   0  0  0  0  0  0  0  0  0  0  0  0
   19.3914   22.7642   51.2308 O   0  0  0  0  0  0  0  0  0  0  0  0
   18.1700   22.6853   50.5373 C   0  0  2  0  0  0  0  0  0  0  0  0
   17.9504   23.7053   49.4818 C   0  0  0  0  0  0  0  0  0  0  0  0
   21.5035   22.6537   50.1746 O   0  0  0  0  0  0  0  0  0  0  0  0
   21.0377   25.4547   52.0942 C   0  0  0  0  0  0  0  0  0  0  0  0
   20.6711   25.9963   54.4513 C   0  0  0  0  0  0  0  0  0  0  0  0
   19.4929   26.7649   54.7674 C   0  0  0  0  0  0  0  0  0  0  0  0
   17.6556   25.2207   55.5537 C   0  0  0  0  0  0  0  0  0  0  0  0
   16.7594   24.3574   53.3657 C   0  0  2  0  0  0  0  0  0  0  0  0
   17.7556   24.7326   52.5101 O   0  0  0  0  0  0  0  0  0  0  0  0
   16.9448   22.6862   51.4560 C   0  0  0  0  0  0  0  0  0  0  0  0
   21.8313   26.2467   55.0420 N   0  0  0  0  0  0  0  0  0  0  0  0
   22.4989   25.3407   55.8063 O   0  0  0  0  0  0  0  0  0  0  0  0
   23.5590   25.5100   57.9090 C   0  0  0  0  0  0  0  0  0  0  0  0
   23.1710   24.1546   59.8745 C   0  0  0  0  0  0  0  0  0  0  0  0
   23.1031   25.0709   62.0677 O   0  0  0  0  0  0  0  0  0  0  0  0
   23.4957   26.4753   60.1311 C   0  0  0  0  0  0  0  0  0  0  0  0
   23.6432   26.5988   58.7558 C   0  0  0  0  0  0  0  0  0  0  0  0
   21.4014   26.8074   52.0431 C   0  0  0  0  0  0  0  0  0  0  0  0
   21.6868   27.4172   50.8420 C   0  0  0  0  0  0  0  0  0  0  0  0
   22.0443   28.7534   50.8009 O   0  0  0  0  0  0  0  0  0  0  0  0
   21.6275   26.7289   49.6555 C   0  0  0  0  0  0  0  0  0  0  0  0
  1 17  1  0
  1 18  1  6
 19  2  2  0
  2 20  1  0
 20  3  2  0
  3 21  1  0
 21  4  1  0
  4 22  1  6
  4 23  1  0
  5 25  1  1
  5 26  1  0
 26  6  2  0
  6 27  1  0
 27  7  2  0
  7 28  1  0
  7 29  1  0
  8 28  1  6
 10  9  1  0
 11 10  2  0
 10 34  1  0
 11 12  1  0
 17 11  1  0
 12 13  1  0
 12 16  2  0
 14 13  1  1
 15 14  1  6
 23 14  1  6
 17 31  2  0
 18 19  1  0
 24 18  2  0
 21 22  1  6
 24 25  1  0
 26 30  1  0
 29 30  2  0
 31 32  1  0
 32 33  1  0
 32 34  2  0
M  END
$$$$
