
     RDKit          3D

 34 37  0  0  0  0  0  0  0  0999 V2000
   21.2523   25.5645   53.4991 C   0  0  0  0  0  0  0  0  0  0  0  0
   20.9130   23.4500   56.1806 C   0  0  0  0  0  0  0  0  0  0  0  0
   23.1855   22.6109   55.5237 C   0  0  0  0  0  0  0  0  0  0  0  0
   23.5701   22.5524   53.1846 C   0  0  2  0  0  0  0  0  0  0  0  0
   19.1038   28.2747   56.7059 C   0  0  0  0  0  0  0  0  0  0  0  0
   20.3393   30.3268   56.0992 C   0  0  0  0  0  0  0  0  0  0  0  0
   22.4626   30.9181   57.0198 C   0  0  0  0  0  0  0  0  0  0  0  0
   23.5517   32.9898   56.3188 C   0  0  0  0  0  0  0  0  0  0  0  0
   20.2072   24.3906   48.7630 O   0  0  0  0  0  0  0  0  0  0  0  0
   19.8116   24.6746   50.0866 C   0  0  0  0  0  0  0  0  0  0  0  0
   20.7756   24.9249   51.0816 C   0  0  0  0  0  0  0  0  0  0  0  0
   22.1753   24.8293   50.6128 C   0  0  0  0  0  0  0  0  0  0  0  0
   23.1504   23.9972   51.1470 O   0  0  0  0  0  0  0  0  0  0  0  0
   23.4324   22.6670   50.7864 C   0  0  2  0  0  0  0  0  0  0  0  0
   22.3165   21.9057   50.1716 C   0  0  0  0  0  0  0  0  0  0  0  0
   22.3942   25.6336   49.6177 O   0  0  0  0  0  0  0  0  0  0  0  0
   20.3534   25.2030   52.3374 C   0  0  0  0  0  0  0  0  0  0  0  0
   20.4793   25.4967   54.7626 C   0  0  0  0  0  0  0  0  0  0  0  0
   20.1839   24.3426   55.5747 C   0  0  0  0  0  0  0  0  0  0  0  0
   22.3367   23.2352   56.2941 C   0  0  0  0  0  0  0  0  0  0  0  0
   22.9212   21.9006   54.2414 C   0  0  2  0  0  0  0  0  0  0  0  0
   22.0885   22.4654   53.3179 O   0  0  0  0  0  0  0  0  0  0  0  0
   23.9974   21.8289   51.9369 C   0  0  0  0  0  0  0  0  0  0  0  0
   20.0334   26.7003   55.0947 N   0  0  0  0  0  0  0  0  0  0  0  0
   19.4854   26.9936   56.3048 O   0  0  0  0  0  0  0  0  0  0  0  0
   20.2674   29.1566   56.8371 C   0  0  0  0  0  0  0  0  0  0  0  0
   21.4117   31.1867   56.1888 C   0  0  0  0  0  0  0  0  0  0  0  0
   23.5255   31.8059   57.0849 O   0  0  0  0  0  0  0  0  0  0  0  0
   22.4217   29.7590   57.7696 C   0  0  0  0  0  0  0  0  0  0  0  0
   21.3368   28.8976   57.6732 C   0  0  0  0  0  0  0  0  0  0  0  0
   18.9774   25.2268   52.6034 C   0  0  0  0  0  0  0  0  0  0  0  0
   18.0610   24.9747   51.6072 C   0  0  0  0  0  0  0  0  0  0  0  0
   16.7043   24.9996   51.8790 O   0  0  0  0  0  0  0  0  0  0  0  0
   18.4561   24.6927   50.3229 C   0  0  0  0  0  0  0  0  0  0  0  0
  1 17  1  0
  1 18  1  6
 19  2  2  0
  2 20  1  0
 20  3  2  0
  3 21  1  0
 21  4  1  0
  4 22  1  6
  4 23  1  0
  5 25  1  1
  5 26  1  0
 26  6  2  0
  6 27  1  0
 27  7  2  0
  7 28  1  0
  7 29  1  0
  8 28  1  6
 10  9  1  0
 11 10  2  0
 10 34  1  0
 11 12  1  0
 17 11  1  0
 12 13  1  0
 12 16  2  0
 14 13  1  1
 15 14  1  6
 23 14  1  6
 17 31  2  0
 18 19  1  0
 24 18  2  0
 21 22  1  6
 24 25  1  0
 26 30  1  0
 29 30  2  0
 31 32  1  0
 32 33  1  0
 32 34  2  0
M  END
$$$$
