
     RDKit          3D

 34 37  0  0  0  0  0  0  0  0999 V2000
   21.7917   24.8569   53.5604 C   0  0  0  0  0  0  0  0  0  0  0  0
   21.9488   22.3447   55.8930 C   0  0  0  0  0  0  0  0  0  0  0  0
   24.0968   21.7227   54.7533 C   0  0  0  0  0  0  0  0  0  0  0  0
   24.0868   22.0396   52.4035 C   0  0  2  0  0  0  0  0  0  0  0  0
   20.3720   28.0706   55.4478 C   0  0  0  0  0  0  0  0  0  0  0  0
   18.0471   27.2345   55.4140 C   0  0  0  0  0  0  0  0  0  0  0  0
   16.6314   27.1720   57.3369 C   0  0  0  0  0  0  0  0  0  0  0  0
   15.1666   26.9960   59.2843 C   0  0  0  0  0  0  0  0  0  0  0  0
   19.9958   24.3714   48.9301 O   0  0  0  0  0  0  0  0  0  0  0  0
   19.8207   24.4314   50.3283 C   0  0  0  0  0  0  0  0  0  0  0  0
   20.9318   24.5719   51.1814 C   0  0  0  0  0  0  0  0  0  0  0  0
   22.2353   24.6144   50.4835 C   0  0  0  0  0  0  0  0  0  0  0  0
   23.3031   23.7570   50.7148 O   0  0  0  0  0  0  0  0  0  0  0  0
   23.5486   22.5120   50.1077 C   0  0  2  0  0  0  0  0  0  0  0  0
   22.3619   21.8021   49.5687 C   0  0  0  0  0  0  0  0  0  0  0  0
   22.2683   25.5704   49.6059 O   0  0  0  0  0  0  0  0  0  0  0  0
   20.7193   24.6352   52.5168 C   0  0  0  0  0  0  0  0  0  0  0  0
   21.2420   24.5612   54.9053 C   0  0  0  0  0  0  0  0  0  0  0  0
   21.1103   23.2842   55.5617 C   0  0  0  0  0  0  0  0  0  0  0  0
   23.3756   22.1819   55.7396 C   0  0  0  0  0  0  0  0  0  0  0  0
   23.6371   21.2047   53.4346 C   0  0  2  0  0  0  0  0  0  0  0  0
   22.6504   21.8641   52.7588 O   0  0  0  0  0  0  0  0  0  0  0  0
   24.3150   21.5356   51.0046 C   0  0  0  0  0  0  0  0  0  0  0  0
   20.8327   25.6780   55.4912 N   0  0  0  0  0  0  0  0  0  0  0  0
   20.9474   26.9106   54.9272 O   0  0  0  0  0  0  0  0  0  0  0  0
   19.1058   27.7752   56.1250 C   0  0  0  0  0  0  0  0  0  0  0  0
   16.8388   26.9401   56.0064 C   0  0  0  0  0  0  0  0  0  0  0  0
   15.4027   26.8636   57.9002 O   0  0  0  0  0  0  0  0  0  0  0  0
   17.6674   27.7107   58.0744 C   0  0  0  0  0  0  0  0  0  0  0  0
   18.8823   28.0045   57.4693 C   0  0  0  0  0  0  0  0  0  0  0  0
   19.4068   24.5539   53.0020 C   0  0  0  0  0  0  0  0  0  0  0  0
   18.3425   24.4141   52.1397 C   0  0  0  0  0  0  0  0  0  0  0  0
   17.0500   24.3339   52.6276 O   0  0  0  0  0  0  0  0  0  0  0  0
   18.5235   24.3500   50.7803 C   0  0  0  0  0  0  0  0  0  0  0  0
  1 17  1  0
  1 18  1  6
 19  2  2  0
  2 20  1  0
 20  3  2  0
  3 21  1  0
 21  4  1  0
  4 22  1  6
  4 23  1  0
  5 25  1  1
  5 26  1  0
 26  6  2  0
  6 27  1  0
 27  7  2  0
  7 28  1  0
  7 29  1  0
  8 28  1  6
 10  9  1  0
 11 10  2  0
 10 34  1  0
 11 12  1  0
 17 11  1  0
 12 13  1  0
 12 16  2  0
 14 13  1  1
 15 14  1  6
 23 14  1  6
 17 31  2  0
 18 19  1  0
 24 18  2  0
 21 22  1  1
 24 25  1  0
 26 30  1  0
 29 30  2  0
 31 32  1  0
 32 33  1  0
 32 34  2  0
M  END
$$$$
