
     RDKit          3D

 34 37  0  0  0  0  0  0  0  0999 V2000
   21.5668   24.9870   52.8914 C   0  0  0  0  0  0  0  0  0  0  0  0
   22.7754   25.1367   56.0436 C   0  0  0  0  0  0  0  0  0  0  0  0
   24.9544   24.2473   55.1136 C   0  0  0  0  0  0  0  0  0  0  0  0
   24.1097   22.8473   53.3715 C   0  0  2  0  0  0  0  0  0  0  0  0
   18.5687   27.1068   54.7684 C   0  0  0  0  0  0  0  0  0  0  0  0
   17.1136   26.2998   56.6611 C   0  0  0  0  0  0  0  0  0  0  0  0
   18.1031   25.5236   58.7197 C   0  0  0  0  0  0  0  0  0  0  0  0
   18.5140   23.8245   60.4449 C   0  0  0  0  0  0  0  0  0  0  0  0
   20.0764   24.1079   48.2946 O   0  0  0  0  0  0  0  0  0  0  0  0
   19.8628   24.5644   49.6002 C   0  0  0  0  0  0  0  0  0  0  0  0
   20.8222   24.5533   50.5760 C   0  0  0  0  0  0  0  0  0  0  0  0
   22.1711   24.0276   50.2397 C   0  0  0  0  0  0  0  0  0  0  0  0
   22.9494   23.2732   51.0399 O   0  0  0  0  0  0  0  0  0  0  0  0
   23.1397   21.9500   51.3297 C   0  0  2  0  0  0  0  0  0  0  0  0
   21.8978   21.1817   51.7209 C   0  0  0  0  0  0  0  0  0  0  0  0
   22.5054   24.4103   49.0323 O   0  0  0  0  0  0  0  0  0  0  0  0
   20.5080   25.0339   51.8525 C   0  0  0  0  0  0  0  0  0  0  0  0
   21.3180   25.7912   54.0900 C   0  0  0  0  0  0  0  0  0  0  0  0
   21.6300   25.3994   55.4603 C   0  0  0  0  0  0  0  0  0  0  0  0
   24.1345   25.1136   55.6482 C   0  0  0  0  0  0  0  0  0  0  0  0
   24.6413   22.8289   54.7111 C   0  0  2  0  0  0  0  0  0  0  0  0
   23.2982   22.5765   54.4832 O   0  0  0  0  0  0  0  0  0  0  0  0
   24.2211   21.7139   52.4271 C   0  0  0  0  0  0  0  0  0  0  0  0
   20.7762   26.9454   53.8276 N   0  0  0  0  0  0  0  0  0  0  0  0
   19.8815   27.6052   54.6111 O   0  0  0  0  0  0  0  0  0  0  0  0
   18.3595   26.5601   56.1281 C   0  0  0  0  0  0  0  0  0  0  0  0
   16.9883   25.7843   57.9503 C   0  0  0  0  0  0  0  0  0  0  0  0
   17.9269   25.0122   59.9936 O   0  0  0  0  0  0  0  0  0  0  0  0
   19.3427   25.7860   58.1807 C   0  0  0  0  0  0  0  0  0  0  0  0
   19.4720   26.2963   56.9050 C   0  0  0  0  0  0  0  0  0  0  0  0
   19.2557   25.5032   52.1041 C   0  0  0  0  0  0  0  0  0  0  0  0
   18.2700   25.5168   51.1091 C   0  0  0  0  0  0  0  0  0  0  0  0
   16.9843   26.0050   51.3870 O   0  0  0  0  0  0  0  0  0  0  0  0
   18.5745   25.0460   49.8531 C   0  0  0  0  0  0  0  0  0  0  0  0
  1 17  1  0
 18  1  1  0
 19  2  2  0
  2 20  1  0
 20  3  2  0
  3 21  1  0
 21  4  1  0
 22  4  1  0
  4 23  1  6
 25  5  1  0
  5 26  1  0
 26  6  2  0
  6 27  1  0
 27  7  2  0
  7 28  1  0
  7 29  1  0
 28  8  1  0
 10  9  1  0
 11 10  2  0
 10 34  1  0
 11 12  1  0
 17 11  1  0
 12 13  1  0
 12 16  2  0
 13 14  1  0
 14 15  1  1
 14 23  1  0
 17 31  2  0
 18 19  1  0
 24 18  2  0
 21 22  1  1
 24 25  1  0
 26 30  1  0
 29 30  2  0
 31 32  1  0
 32 33  1  0
 32 34  2  0
M  END
$$$$
