
     RDKit          3D

 34 37  0  0  0  0  0  0  0  0999 V2000
   21.3222   25.2157   53.0550 C   0  0  0  0  0  0  0  0  0  0  0  0
   22.5496   25.4038   56.1979 C   0  0  0  0  0  0  0  0  0  0  0  0
   24.7695   24.6583   55.2386 C   0  0  0  0  0  0  0  0  0  0  0  0
   23.9945   23.2289   53.4879 C   0  0  2  0  0  0  0  0  0  0  0  0
   18.4972   27.5676   55.3869 C   0  0  0  0  0  0  0  0  0  0  0  0
   18.9043   27.2593   57.8546 C   0  0  0  0  0  0  0  0  0  0  0  0
   18.5932   25.1006   58.8856 C   0  0  0  0  0  0  0  0  0  0  0  0
   17.6762   23.3508   60.3448 C   0  0  0  0  0  0  0  0  0  0  0  0
   19.8441   24.2983   48.4618 O   0  0  0  0  0  0  0  0  0  0  0  0
   19.6157   24.7267   49.7743 C   0  0  0  0  0  0  0  0  0  0  0  0
   20.5833   24.7631   50.7414 C   0  0  0  0  0  0  0  0  0  0  0  0
   21.9582   24.3238   50.3872 C   0  0  0  0  0  0  0  0  0  0  0  0
   22.7884   23.6093   51.1718 O   0  0  0  0  0  0  0  0  0  0  0  0
   23.0612   22.2970   51.4446 C   0  0  2  0  0  0  0  0  0  0  0  0
   21.8718   21.4505   51.8378 C   0  0  0  0  0  0  0  0  0  0  0  0
   22.2573   24.7394   49.1814 O   0  0  0  0  0  0  0  0  0  0  0  0
   20.2527   25.2098   52.0262 C   0  0  0  0  0  0  0  0  0  0  0  0
   21.0367   25.9901   54.2650 C   0  0  0  0  0  0  0  0  0  0  0  0
   21.3848   25.6029   55.6278 C   0  0  0  0  0  0  0  0  0  0  0  0
   23.9037   25.4675   55.7903 C   0  0  0  0  0  0  0  0  0  0  0  0
   24.5389   23.2281   54.8225 C   0  0  2  0  0  0  0  0  0  0  0  0
   23.2115   22.8973   54.6035 O   0  0  0  0  0  0  0  0  0  0  0  0
   24.1652   22.1149   52.5295 C   0  0  0  0  0  0  0  0  0  0  0  0
   20.4236   27.1122   54.0208 N   0  0  0  0  0  0  0  0  0  0  0  0
   19.7960   27.8964   54.9378 O   0  0  0  0  0  0  0  0  0  0  0  0
   18.5446   26.7534   56.6222 C   0  0  0  0  0  0  0  0  0  0  0  0
   18.9278   26.4356   58.9790 C   0  0  0  0  0  0  0  0  0  0  0  0
   18.6318   24.3238   60.0304 O   0  0  0  0  0  0  0  0  0  0  0  0
   18.2355   24.6034   57.6525 C   0  0  0  0  0  0  0  0  0  0  0  0
   18.2106   25.4148   56.5363 C   0  0  0  0  0  0  0  0  0  0  0  0
   18.9768   25.5994   52.2942 C   0  0  0  0  0  0  0  0  0  0  0  0
   17.9826   25.5642   51.3082 C   0  0  0  0  0  0  0  0  0  0  0  0
   16.6725   25.9704   51.6030 O   0  0  0  0  0  0  0  0  0  0  0  0
   18.3031   25.1265   50.0442 C   0  0  0  0  0  0  0  0  0  0  0  0
  1 17  1  0
 18  1  1  0
 19  2  2  0
  2 20  1  0
 20  3  2  0
  3 21  1  0
 21  4  1  0
 22  4  1  0
  4 23  1  6
 25  5  1  0
  5 26  1  0
 26  6  2  0
  6 27  1  0
 27  7  2  0
  7 28  1  0
  7 29  1  0
 28  8  1  0
 10  9  1  0
 11 10  2  0
 10 34  1  0
 11 12  1  0
 17 11  1  0
 12 13  1  0
 12 16  2  0
 13 14  1  0
 14 15  1  1
 14 23  1  0
 17 31  2  0
 18 19  1  0
 24 18  2  0
 21 22  1  1
 24 25  1  0
 26 30  1  0
 29 30  2  0
 31 32  1  0
 32 33  1  0
 32 34  2  0
M  END
$$$$
