
     RDKit          3D

 34 37  0  0  0  0  0  0  0  0999 V2000
   21.3712   25.0649   52.8704 C   0  0  0  0  0  0  0  0  0  0  0  0
   22.6500   25.2957   55.9898 C   0  0  0  0  0  0  0  0  0  0  0  0
   24.8845   24.6665   54.9822 C   0  0  0  0  0  0  0  0  0  0  0  0
   24.1464   23.2104   53.2376 C   0  0  2  0  0  0  0  0  0  0  0  0
   18.6510   27.9001   55.1873 C   0  0  0  0  0  0  0  0  0  0  0  0
   19.5873   26.2512   56.8470 C   0  0  0  0  0  0  0  0  0  0  0  0
   18.3698   25.7160   58.8597 C   0  0  0  0  0  0  0  0  0  0  0  0
   17.1456   24.3557   60.4976 C   0  0  0  0  0  0  0  0  0  0  0  0
   19.8490   24.1016   48.3010 O   0  0  0  0  0  0  0  0  0  0  0  0
   19.6259   24.5106   49.6206 C   0  0  0  0  0  0  0  0  0  0  0  0
   20.6096   24.5894   50.5688 C   0  0  0  0  0  0  0  0  0  0  0  0
   21.9972   24.2208   50.1848 C   0  0  0  0  0  0  0  0  0  0  0  0
   22.8771   23.5438   50.9481 O   0  0  0  0  0  0  0  0  0  0  0  0
   23.2198   22.2451   51.2068 C   0  0  2  0  0  0  0  0  0  0  0  0
   22.0817   21.3385   51.6176 C   0  0  0  0  0  0  0  0  0  0  0  0
   22.2513   24.6575   48.9761 O   0  0  0  0  0  0  0  0  0  0  0  0
   20.2830   25.0119   51.8627 C   0  0  0  0  0  0  0  0  0  0  0  0
   21.0718   25.8173   54.0909 C   0  0  0  0  0  0  0  0  0  0  0  0
   21.4658   25.4402   55.4440 C   0  0  0  0  0  0  0  0  0  0  0  0
   23.9910   25.4287   55.5561 C   0  0  0  0  0  0  0  0  0  0  0  0
   24.7166   23.2290   54.5612 C   0  0  2  0  0  0  0  0  0  0  0  0
   23.4031   22.8342   54.3661 O   0  0  0  0  0  0  0  0  0  0  0  0
   24.3528   22.1117   52.2687 C   0  0  0  0  0  0  0  0  0  0  0  0
   20.3993   26.9091   53.8661 N   0  0  0  0  0  0  0  0  0  0  0  0
   19.0735   27.0950   54.1057 O   0  0  0  0  0  0  0  0  0  0  0  0
   18.5967   27.1246   56.4470 C   0  0  0  0  0  0  0  0  0  0  0  0
   19.4724   25.5516   58.0473 C   0  0  0  0  0  0  0  0  0  0  0  0
   18.3019   24.9990   60.0415 O   0  0  0  0  0  0  0  0  0  0  0  0
   17.3858   26.5893   58.4535 C   0  0  0  0  0  0  0  0  0  0  0  0
   17.4948   27.2842   57.2661 C   0  0  0  0  0  0  0  0  0  0  0  0
   18.9950   25.3364   52.1582 C   0  0  0  0  0  0  0  0  0  0  0  0
   17.9843   25.2576   51.1917 C   0  0  0  0  0  0  0  0  0  0  0  0
   16.6618   25.5967   51.5149 O   0  0  0  0  0  0  0  0  0  0  0  0
   18.3008   24.8434   49.9188 C   0  0  0  0  0  0  0  0  0  0  0  0
  1 17  1  0
 18  1  1  0
 19  2  2  0
  2 20  1  0
 20  3  2  0
  3 21  1  0
 21  4  1  0
 22  4  1  0
  4 23  1  6
 25  5  1  0
  5 26  1  0
 26  6  2  0
  6 27  1  0
 27  7  2  0
  7 28  1  0
  7 29  1  0
 28  8  1  0
 10  9  1  0
 11 10  2  0
 10 34  1  0
 11 12  1  0
 17 11  1  0
 12 13  1  0
 12 16  2  0
 13 14  1  0
 14 15  1  1
 14 23  1  0
 17 31  2  0
 18 19  1  0
 24 18  2  0
 21 22  1  1
 24 25  1  0
 26 30  1  0
 29 30  2  0
 31 32  1  0
 32 33  1  0
 32 34  2  0
M  END
$$$$
