
     RDKit          3D

 34 37  0  0  0  0  0  0  0  0999 V2000
   21.4060   25.2856   53.3609 C   0  0  0  0  0  0  0  0  0  0  0  0
   20.7385   23.3914   56.1436 C   0  0  0  0  0  0  0  0  0  0  0  0
   22.9916   22.3710   55.7169 C   0  0  0  0  0  0  0  0  0  0  0  0
   23.5365   22.1233   53.4225 C   0  0  2  0  0  0  0  0  0  0  0  0
   20.6964   26.7324   57.1537 C   0  0  0  0  0  0  0  0  0  0  0  0
   22.6355   27.8583   56.1156 C   0  0  0  0  0  0  0  0  0  0  0  0
   24.9035   27.2087   56.4895 C   0  0  0  0  0  0  0  0  0  0  0  0
   27.1563   26.3245   56.1546 C   0  0  0  0  0  0  0  0  0  0  0  0
   20.6245   23.8441   48.6479 O   0  0  0  0  0  0  0  0  0  0  0  0
   20.1555   24.2450   49.9162 C   0  0  0  0  0  0  0  0  0  0  0  0
   21.0609   24.5062   50.9622 C   0  0  0  0  0  0  0  0  0  0  0  0
   22.4809   24.2925   50.6075 C   0  0  0  0  0  0  0  0  0  0  0  0
   23.3587   23.4426   51.2677 O   0  0  0  0  0  0  0  0  0  0  0  0
   23.5772   22.0754   51.0185 C   0  0  2  0  0  0  0  0  0  0  0  0
   22.4600   21.3418   50.3732 C   0  0  0  0  0  0  0  0  0  0  0  0
   22.8225   25.0092   49.5805 O   0  0  0  0  0  0  0  0  0  0  0  0
   20.5699   24.8979   52.1613 C   0  0  0  0  0  0  0  0  0  0  0  0
   20.5425   25.3549   54.5643 C   0  0  0  0  0  0  0  0  0  0  0  0
   20.1147   24.2815   55.4266 C   0  0  0  0  0  0  0  0  0  0  0  0
   22.1333   23.0990   56.3780 C   0  0  0  0  0  0  0  0  0  0  0  0
   22.7727   21.5889   54.4683 C   0  0  2  0  0  0  0  0  0  0  0  0
   22.0467   22.1363   53.4493 O   0  0  0  0  0  0  0  0  0  0  0  0
   24.0027   21.2883   52.2613 C   0  0  0  0  0  0  0  0  0  0  0  0
   20.1545   26.6040   54.7812 N   0  0  0  0  0  0  0  0  0  0  0  0
   19.9867   27.1363   56.0219 O   0  0  0  0  0  0  0  0  0  0  0  0
   22.1415   26.8676   56.9484 C   0  0  0  0  0  0  0  0  0  0  0  0
   23.9845   28.0244   55.8919 C   0  0  0  0  0  0  0  0  0  0  0  0
   26.2535   27.4045   56.2417 O   0  0  0  0  0  0  0  0  0  0  0  0
   24.4435   26.2106   57.3260 C   0  0  0  0  0  0  0  0  0  0  0  0
   23.0818   26.0501   57.5460 C   0  0  0  0  0  0  0  0  0  0  0  0
   19.1830   25.0243   52.3208 C   0  0  0  0  0  0  0  0  0  0  0  0
   18.3250   24.7584   51.2773 C   0  0  0  0  0  0  0  0  0  0  0  0
   16.9571   24.8851   51.4438 O   0  0  0  0  0  0  0  0  0  0  0  0
   18.7908   24.3624   50.0479 C   0  0  0  0  0  0  0  0  0  0  0  0
  1 17  1  0
  1 18  1  6
 19  2  2  0
  2 20  1  0
 20  3  2  0
  3 21  1  0
 21  4  1  0
  4 22  1  6
  4 23  1  0
  5 25  1  1
  5 26  1  0
 26  6  2  0
  6 27  1  0
 27  7  2  0
  7 28  1  0
  7 29  1  0
  8 28  1  6
 10  9  1  0
 11 10  2  0
 10 34  1  0
 11 12  1  0
 17 11  1  0
 12 13  1  0
 12 16  2  0
 14 13  1  1
 15 14  1  6
 23 14  1  6
 17 31  2  0
 18 19  1  0
 24 18  2  0
 21 22  1  6
 24 25  1  0
 26 30  1  0
 29 30  2  0
 31 32  1  0
 32 33  1  0
 32 34  2  0
M  END
$$$$
