
     RDKit          3D

 34 37  0  0  0  0  0  0  0  0999 V2000
   21.3297   24.8191   53.1426 C   0  0  0  0  0  0  0  0  0  0  0  0
   22.2652   24.5929   56.3819 C   0  0  0  0  0  0  0  0  0  0  0  0
   24.5937   24.0701   55.5399 C   0  0  0  0  0  0  0  0  0  0  0  0
   24.0442   22.8830   53.5406 C   0  0  2  0  0  0  0  0  0  0  0  0
   19.3442   27.4320   56.3068 C   0  0  0  0  0  0  0  0  0  0  0  0
   21.1033   28.6298   57.6564 C   0  0  0  0  0  0  0  0  0  0  0  0
   21.3403   28.1953   60.0175 C   0  0  0  0  0  0  0  0  0  0  0  0
   22.8839   29.5300   61.3842 C   0  0  0  0  0  0  0  0  0  0  0  0
   20.3068   24.5252   48.3476 O   0  0  0  0  0  0  0  0  0  0  0  0
   19.9438   24.7513   49.6801 C   0  0  0  0  0  0  0  0  0  0  0  0
   20.8196   24.6807   50.7293 C   0  0  0  0  0  0  0  0  0  0  0  0
   22.2396   24.3444   50.4475 C   0  0  0  0  0  0  0  0  0  0  0  0
   23.0302   23.5528   51.1981 O   0  0  0  0  0  0  0  0  0  0  0  0
   23.3396   22.2249   51.3079 C   0  0  2  0  0  0  0  0  0  0  0  0
   22.1615   21.2903   51.4645 C   0  0  0  0  0  0  0  0  0  0  0  0
   22.6237   24.9397   49.3456 O   0  0  0  0  0  0  0  0  0  0  0  0
   20.3565   24.9254   52.0273 C   0  0  0  0  0  0  0  0  0  0  0  0
   20.9024   25.4003   54.4173 C   0  0  0  0  0  0  0  0  0  0  0  0
   21.1471   24.8324   55.7387 C   0  0  0  0  0  0  0  0  0  0  0  0
   23.6455   24.7610   56.1163 C   0  0  0  0  0  0  0  0  0  0  0  0
   24.4685   22.7080   54.9069 C   0  0  2  0  0  0  0  0  0  0  0  0
   23.1826   22.3672   54.5198 O   0  0  0  0  0  0  0  0  0  0  0  0
   24.3512   21.9257   52.4552 C   0  0  0  0  0  0  0  0  0  0  0  0
   20.2609   26.5244   54.2770 N   0  0  0  0  0  0  0  0  0  0  0  0
   20.2033   27.5313   55.1893 O   0  0  0  0  0  0  0  0  0  0  0  0
   20.0630   27.7277   57.5667 C   0  0  0  0  0  0  0  0  0  0  0  0
   21.7372   28.8609   58.8763 C   0  0  0  0  0  0  0  0  0  0  0  0
   22.0009   28.4590   61.2047 O   0  0  0  0  0  0  0  0  0  0  0  0
   20.3016   27.2968   59.9196 C   0  0  0  0  0  0  0  0  0  0  0  0
   19.6708   27.0646   58.7143 C   0  0  0  0  0  0  0  0  0  0  0  0
   19.0449   25.2285   52.2265 C   0  0  0  0  0  0  0  0  0  0  0  0
   18.1442   25.3022   51.1563 C   0  0  0  0  0  0  0  0  0  0  0  0
   16.7954   25.6166   51.3811 O   0  0  0  0  0  0  0  0  0  0  0  0
   18.5950   25.0629   49.8790 C   0  0  0  0  0  0  0  0  0  0  0  0
  1 17  1  0
 18  1  1  0
 19  2  2  0
  2 20  1  0
 20  3  2  0
  3 21  1  0
 21  4  1  0
 22  4  1  0
  4 23  1  6
 25  5  1  0
  5 26  1  0
 26  6  2  0
  6 27  1  0
 27  7  2  0
  7 28  1  0
  7 29  1  0
 28  8  1  0
 10  9  1  0
 11 10  2  0
 10 34  1  0
 11 12  1  0
 17 11  1  0
 12 13  1  0
 12 16  2  0
 13 14  1  0
 14 15  1  1
 14 23  1  0
 17 31  2  0
 18 19  1  0
 24 18  2  0
 21 22  1  1
 24 25  1  0
 26 30  1  0
 29 30  2  0
 31 32  1  0
 32 33  1  0
 32 34  2  0
M  END
$$$$
