
     RDKit          3D

 34 37  0  0  0  0  0  0  0  0999 V2000
   21.9584   24.9502   53.7487 C   0  0  0  0  0  0  0  0  0  0  0  0
   22.4324   22.5590   56.1641 C   0  0  0  0  0  0  0  0  0  0  0  0
   24.3277   21.7850   54.7120 C   0  0  0  0  0  0  0  0  0  0  0  0
   23.9209   21.9788   52.3841 C   0  0  2  0  0  0  0  0  0  0  0  0
   20.3387   27.8865   54.7826 C   0  0  0  0  0  0  0  0  0  0  0  0
   19.3025   26.7012   56.6870 C   0  0  0  0  0  0  0  0  0  0  0  0
   16.9527   26.6776   57.1153 C   0  0  0  0  0  0  0  0  0  0  0  0
   16.0941   25.6245   59.1459 C   0  0  0  0  0  0  0  0  0  0  0  0
   19.3708   24.3021   49.5315 O   0  0  0  0  0  0  0  0  0  0  0  0
   19.4432   24.4428   50.9329 C   0  0  0  0  0  0  0  0  0  0  0  0
   20.6895   24.5790   51.5733 C   0  0  0  0  0  0  0  0  0  0  0  0
   21.8528   24.5280   50.6610 C   0  0  0  0  0  0  0  0  0  0  0  0
   22.9148   23.6381   50.7562 O   0  0  0  0  0  0  0  0  0  0  0  0
   23.0088   22.3535   50.1906 C   0  0  2  0  0  0  0  0  0  0  0  0
   21.7231   21.6688   49.9058 C   0  0  0  0  0  0  0  0  0  0  0  0
   21.7655   25.4344   49.7359 O   0  0  0  0  0  0  0  0  0  0  0  0
   20.7143   24.7213   52.9193 C   0  0  0  0  0  0  0  0  0  0  0  0
   21.6407   24.7495   55.1830 C   0  0  0  0  0  0  0  0  0  0  0  0
   21.5816   23.5157   55.9265 C   0  0  0  0  0  0  0  0  0  0  0  0
   23.8046   22.3262   55.7784 C   0  0  0  0  0  0  0  0  0  0  0  0
   23.6288   21.2193   53.5245 C   0  0  2  0  0  0  0  0  0  0  0  0
   22.5628   21.8850   52.9900 O   0  0  0  0  0  0  0  0  0  0  0  0
   23.8856   21.3928   50.9990 C   0  0  0  0  0  0  0  0  0  0  0  0
   21.3775   25.9123   55.7634 N   0  0  0  0  0  0  0  0  0  0  0  0
   21.4474   27.1087   55.1197 O   0  0  0  0  0  0  0  0  0  0  0  0
   19.1592   27.4908   55.5579 C   0  0  0  0  0  0  0  0  0  0  0  0
   18.2245   26.3043   57.4472 C   0  0  0  0  0  0  0  0  0  0  0  0
   15.8911   26.2599   57.9031 O   0  0  0  0  0  0  0  0  0  0  0  0
   16.7755   27.4652   55.9948 C   0  0  0  0  0  0  0  0  0  0  0  0
   17.8678   27.8608   55.2339 C   0  0  0  0  0  0  0  0  0  0  0  0
   19.5039   24.7229   53.6261 C   0  0  0  0  0  0  0  0  0  0  0  0
   18.3020   24.5848   52.9687 C   0  0  0  0  0  0  0  0  0  0  0  0
   17.1118   24.5867   53.6747 O   0  0  0  0  0  0  0  0  0  0  0  0
   18.2421   24.4419   51.6045 C   0  0  0  0  0  0  0  0  0  0  0  0
  1 17  1  0
  1 18  1  6
 19  2  2  0
  2 20  1  0
 20  3  2  0
  3 21  1  0
 21  4  1  0
  4 22  1  6
  4 23  1  0
  5 25  1  1
  5 26  1  0
 26  6  2  0
  6 27  1  0
 27  7  2  0
  7 28  1  0
  7 29  1  0
  8 28  1  6
 10  9  1  0
 11 10  2  0
 10 34  1  0
 11 12  1  0
 17 11  1  0
 12 13  1  0
 12 16  2  0
 14 13  1  1
 15 14  1  6
 23 14  1  6
 17 31  2  0
 18 19  1  0
 24 18  2  0
 21 22  1  1
 24 25  1  0
 26 30  1  0
 29 30  2  0
 31 32  1  0
 32 33  1  0
 32 34  2  0
M  END
$$$$
