
     RDKit          3D

 34 37  0  0  0  0  0  0  0  0999 V2000
   21.9379   24.8372   52.6498 C   0  0  0  0  0  0  0  0  0  0  0  0
   23.5727   24.6817   55.6033 C   0  0  0  0  0  0  0  0  0  0  0  0
   25.6166   23.9756   54.2888 C   0  0  0  0  0  0  0  0  0  0  0  0
   24.5632   22.7470   52.5312 C   0  0  2  0  0  0  0  0  0  0  0  0
   20.4227   26.7624   56.1577 C   0  0  0  0  0  0  0  0  0  0  0  0
   18.2473   26.3335   54.9601 C   0  0  0  0  0  0  0  0  0  0  0  0
   16.2195   25.9459   56.2082 C   0  0  0  0  0  0  0  0  0  0  0  0
   14.0853   25.5446   57.3554 C   0  0  0  0  0  0  0  0  0  0  0  0
   19.8360   24.4172   48.2305 O   0  0  0  0  0  0  0  0  0  0  0  0
   19.7986   24.7199   49.5963 C   0  0  0  0  0  0  0  0  0  0  0  0
   20.8851   24.6350   50.4240 C   0  0  0  0  0  0  0  0  0  0  0  0
   22.1834   24.1963   49.8487 C   0  0  0  0  0  0  0  0  0  0  0  0
   23.0802   23.3860   50.4440 O   0  0  0  0  0  0  0  0  0  0  0  0
   23.3343   22.0464   50.5529 C   0  0  2  0  0  0  0  0  0  0  0  0
   22.1742   21.1972   51.0205 C   0  0  0  0  0  0  0  0  0  0  0  0
   22.3382   24.7207   48.6582 O   0  0  0  0  0  0  0  0  0  0  0  0
   20.7435   24.9613   51.7778 C   0  0  0  0  0  0  0  0  0  0  0  0
   21.8441   25.4958   53.9547 C   0  0  0  0  0  0  0  0  0  0  0  0
   22.3521   24.9670   55.2159 C   0  0  0  0  0  0  0  0  0  0  0  0
   24.8633   24.7491   55.0255 C   0  0  0  0  0  0  0  0  0  0  0  0
   25.2773   22.6000   53.7746 C   0  0  2  0  0  0  0  0  0  0  0  0
   23.9206   22.3279   53.7054 O   0  0  0  0  0  0  0  0  0  0  0  0
   24.5629   21.7288   51.4578 C   0  0  0  0  0  0  0  0  0  0  0  0
   21.2491   26.6525   53.9017 N   0  0  0  0  0  0  0  0  0  0  0  0
   20.8490   27.3953   54.9684 O   0  0  0  0  0  0  0  0  0  0  0  0
   18.9699   26.4800   56.1266 C   0  0  0  0  0  0  0  0  0  0  0  0
   16.8794   26.0679   55.0030 C   0  0  0  0  0  0  0  0  0  0  0  0
   14.8610   25.6819   56.1985 O   0  0  0  0  0  0  0  0  0  0  0  0
   16.9476   26.0935   57.3675 C   0  0  0  0  0  0  0  0  0  0  0  0
   18.3019   26.3564   57.3304 C   0  0  0  0  0  0  0  0  0  0  0  0
   19.5301   25.3566   52.2501 C   0  0  0  0  0  0  0  0  0  0  0  0
   18.4148   25.4453   51.4074 C   0  0  0  0  0  0  0  0  0  0  0  0
   17.1715   25.8552   51.9123 O   0  0  0  0  0  0  0  0  0  0  0  0
   18.5494   25.1260   50.0763 C   0  0  0  0  0  0  0  0  0  0  0  0
  1 17  1  0
 18  1  1  0
 19  2  2  0
  2 20  1  0
 20  3  2  0
  3 21  1  0
 21  4  1  0
 22  4  1  0
  4 23  1  6
 25  5  1  0
  5 26  1  0
 26  6  2  0
  6 27  1  0
 27  7  2  0
  7 28  1  0
  7 29  1  0
 28  8  1  0
 10  9  1  0
 11 10  2  0
 10 34  1  0
 11 12  1  0
 17 11  1  0
 12 13  1  0
 12 16  2  0
 13 14  1  0
 14 15  1  1
 14 23  1  0
 17 31  2  0
 18 19  1  0
 24 18  2  0
 21 22  1  1
 24 25  1  0
 26 30  1  0
 29 30  2  0
 31 32  1  0
 32 33  1  0
 32 34  2  0
M  END
$$$$
