
     RDKit          3D

 34 37  0  0  0  0  0  0  0  0999 V2000
   21.2419   25.2494   52.7978 C   0  0  0  0  0  0  0  0  0  0  0  0
   22.6217   25.8374   55.8260 C   0  0  0  0  0  0  0  0  0  0  0  0
   24.8534   25.2684   54.7773 C   0  0  0  0  0  0  0  0  0  0  0  0
   24.1500   23.6191   53.1982 C   0  0  2  0  0  0  0  0  0  0  0  0
   18.6711   27.9128   55.3609 C   0  0  0  0  0  0  0  0  0  0  0  0
   18.7676   27.2909   57.8011 C   0  0  0  0  0  0  0  0  0  0  0  0
   19.1613   25.0058   58.4666 C   0  0  0  0  0  0  0  0  0  0  0  0
   19.3761   22.7011   59.2877 C   0  0  0  0  0  0  0  0  0  0  0  0
   19.6138   23.7896   48.3998 O   0  0  0  0  0  0  0  0  0  0  0  0
   19.4144   24.2982   49.6882 C   0  0  0  0  0  0  0  0  0  0  0  0
   20.4262   24.5242   50.5815 C   0  0  0  0  0  0  0  0  0  0  0  0
   21.8200   24.2141   50.1690 C   0  0  0  0  0  0  0  0  0  0  0  0
   22.7732   23.6659   50.9474 O   0  0  0  0  0  0  0  0  0  0  0  0
   23.2140   22.4201   51.3006 C   0  0  2  0  0  0  0  0  0  0  0  0
   22.1576   21.4812   51.8377 C   0  0  0  0  0  0  0  0  0  0  0  0
   21.9965   24.5580   48.9172 O   0  0  0  0  0  0  0  0  0  0  0  0
   20.1218   25.0370   51.8478 C   0  0  0  0  0  0  0  0  0  0  0  0
   20.9391   26.0856   53.9616 C   0  0  0  0  0  0  0  0  0  0  0  0
   21.4100   25.8557   55.3232 C   0  0  0  0  0  0  0  0  0  0  0  0
   23.9326   26.0185   55.3233 C   0  0  0  0  0  0  0  0  0  0  0  0
   24.7685   23.7915   54.4887 C   0  0  2  0  0  0  0  0  0  0  0  0
   23.4786   23.2963   54.3867 O   0  0  0  0  0  0  0  0  0  0  0  0
   24.3938   22.4549   52.3185 C   0  0  0  0  0  0  0  0  0  0  0  0
   20.1850   27.1072   53.6746 N   0  0  0  0  0  0  0  0  0  0  0  0
   18.9111   27.3071   54.1071 O   0  0  0  0  0  0  0  0  0  0  0  0
   18.8343   26.9431   56.4675 C   0  0  0  0  0  0  0  0  0  0  0  0
   18.9305   26.3258   58.7938 C   0  0  0  0  0  0  0  0  0  0  0  0
   19.3164   24.0849   59.4881 O   0  0  0  0  0  0  0  0  0  0  0  0
   19.2265   24.6668   57.1337 C   0  0  0  0  0  0  0  0  0  0  0  0
   19.0659   25.6185   56.1472 C   0  0  0  0  0  0  0  0  0  0  0  0
   18.8269   25.3019   52.1716 C   0  0  0  0  0  0  0  0  0  0  0  0
   17.7874   25.0725   51.2613 C   0  0  0  0  0  0  0  0  0  0  0  0
   16.4582   25.3521   51.6129 O   0  0  0  0  0  0  0  0  0  0  0  0
   18.0820   24.5691   50.0156 C   0  0  0  0  0  0  0  0  0  0  0  0
  1 17  1  0
 18  1  1  0
 19  2  2  0
  2 20  1  0
 20  3  2  0
  3 21  1  0
 21  4  1  0
 22  4  1  0
  4 23  1  6
 25  5  1  0
  5 26  1  0
 26  6  2  0
  6 27  1  0
 27  7  2  0
  7 28  1  0
  7 29  1  0
 28  8  1  0
 10  9  1  0
 11 10  2  0
 10 34  1  0
 11 12  1  0
 17 11  1  0
 12 13  1  0
 12 16  2  0
 13 14  1  0
 14 15  1  1
 14 23  1  0
 17 31  2  0
 18 19  1  0
 24 18  2  0
 21 22  1  1
 24 25  1  0
 26 30  1  0
 29 30  2  0
 31 32  1  0
 32 33  1  0
 32 34  2  0
M  END
$$$$
