
     RDKit          3D

 34 37  0  0  0  0  0  0  0  0999 V2000
   21.1353   24.9042   52.8081 C   0  0  0  0  0  0  0  0  0  0  0  0
   22.1398   24.6297   56.0230 C   0  0  0  0  0  0  0  0  0  0  0  0
   24.4462   24.1050   55.1235 C   0  0  0  0  0  0  0  0  0  0  0  0
   23.8464   22.9477   53.1212 C   0  0  2  0  0  0  0  0  0  0  0  0
   17.7538   26.6632   54.5056 C   0  0  0  0  0  0  0  0  0  0  0  0
   18.9565   28.1004   56.1903 C   0  0  0  0  0  0  0  0  0  0  0  0
   19.0104   27.4710   58.5186 C   0  0  0  0  0  0  0  0  0  0  0  0
   19.7752   26.7758   60.7466 C   0  0  0  0  0  0  0  0  0  0  0  0
   20.0065   24.6798   48.0332 O   0  0  0  0  0  0  0  0  0  0  0  0
   19.6739   24.8903   49.3762 C   0  0  0  0  0  0  0  0  0  0  0  0
   20.5720   24.8007   50.4049 C   0  0  0  0  0  0  0  0  0  0  0  0
   21.9835   24.4602   50.0878 C   0  0  0  0  0  0  0  0  0  0  0  0
   22.7855   23.6542   50.8104 O   0  0  0  0  0  0  0  0  0  0  0  0
   23.0894   22.3233   50.8959 C   0  0  2  0  0  0  0  0  0  0  0  0
   21.9094   21.3934   51.0660 C   0  0  0  0  0  0  0  0  0  0  0  0
   22.3470   25.0680   48.9857 O   0  0  0  0  0  0  0  0  0  0  0  0
   20.1387   25.0308   51.7159 C   0  0  0  0  0  0  0  0  0  0  0  0
   20.7394   25.4709   54.0994 C   0  0  0  0  0  0  0  0  0  0  0  0
   21.0094   24.8841   55.4076 C   0  0  0  0  0  0  0  0  0  0  0  0
   23.5149   24.7935   55.7295 C   0  0  0  0  0  0  0  0  0  0  0  0
   24.2992   22.7521   54.4755 C   0  0  2  0  0  0  0  0  0  0  0  0
   23.0032   22.4238   54.1122 O   0  0  0  0  0  0  0  0  0  0  0  0
   24.1239   22.0032   52.0168 C   0  0  0  0  0  0  0  0  0  0  0  0
   20.1016   26.6002   53.9880 N   0  0  0  0  0  0  0  0  0  0  0  0
   18.8145   26.7544   53.5765 O   0  0  0  0  0  0  0  0  0  0  0  0
   18.2100   26.9829   55.8770 C   0  0  0  0  0  0  0  0  0  0  0  0
   19.3535   28.3413   57.5048 C   0  0  0  0  0  0  0  0  0  0  0  0
   19.4282   27.7538   59.8073 O   0  0  0  0  0  0  0  0  0  0  0  0
   18.2655   26.3584   58.1978 C   0  0  0  0  0  0  0  0  0  0  0  0
   17.8700   26.1154   56.8981 C   0  0  0  0  0  0  0  0  0  0  0  0
   18.8336   25.3386   51.9476 C   0  0  0  0  0  0  0  0  0  0  0  0
   17.9103   25.4316   50.8985 C   0  0  0  0  0  0  0  0  0  0  0  0
   16.5686   25.7506   51.1568 O   0  0  0  0  0  0  0  0  0  0  0  0
   18.3317   25.2068   49.6086 C   0  0  0  0  0  0  0  0  0  0  0  0
  1 17  1  0
 18  1  1  0
 19  2  2  0
  2 20  1  0
 20  3  2  0
  3 21  1  0
 21  4  1  0
 22  4  1  0
  4 23  1  6
 25  5  1  0
  5 26  1  0
 26  6  2  0
  6 27  1  0
 27  7  2  0
  7 28  1  0
  7 29  1  0
 28  8  1  0
 10  9  1  0
 11 10  2  0
 10 34  1  0
 11 12  1  0
 17 11  1  0
 12 13  1  0
 12 16  2  0
 13 14  1  0
 14 15  1  1
 14 23  1  0
 17 31  2  0
 18 19  1  0
 24 18  2  0
 21 22  1  1
 24 25  1  0
 26 30  1  0
 29 30  2  0
 31 32  1  0
 32 33  1  0
 32 34  2  0
M  END
$$$$
