
     RDKit          3D

 34 37  0  0  0  0  0  0  0  0999 V2000
   20.6395   25.6627   53.1100 C   0  0  0  0  0  0  0  0  0  0  0  0
   20.2501   23.7695   55.9457 C   0  0  0  0  0  0  0  0  0  0  0  0
   22.6564   23.1482   55.5938 C   0  0  0  0  0  0  0  0  0  0  0  0
   23.2890   22.9279   53.3193 C   0  0  2  0  0  0  0  0  0  0  0  0
   20.5333   28.4308   55.6010 C   0  0  0  0  0  0  0  0  0  0  0  0
   20.8884   27.8191   57.9686 C   0  0  0  0  0  0  0  0  0  0  0  0
   19.3138   26.5807   59.2695 C   0  0  0  0  0  0  0  0  0  0  0  0
   17.7114   25.3840   60.6729 C   0  0  0  0  0  0  0  0  0  0  0  0
   20.2316   23.9582   48.4378 O   0  0  0  0  0  0  0  0  0  0  0  0
   19.6705   24.3102   49.6830 C   0  0  0  0  0  0  0  0  0  0  0  0
   20.4918   24.7594   50.7345 C   0  0  0  0  0  0  0  0  0  0  0  0
   21.9351   24.7876   50.4120 C   0  0  0  0  0  0  0  0  0  0  0  0
   22.9327   24.1267   51.1167 O   0  0  0  0  0  0  0  0  0  0  0  0
   23.3930   22.8120   50.9194 C   0  0  2  0  0  0  0  0  0  0  0  0
   22.4368   21.8733   50.2813 C   0  0  0  0  0  0  0  0  0  0  0  0
   22.1694   25.5205   49.3665 O   0  0  0  0  0  0  0  0  0  0  0  0
   19.9121   25.0964   51.9106 C   0  0  0  0  0  0  0  0  0  0  0  0
   19.7497   25.6170   54.2952 C   0  0  0  0  0  0  0  0  0  0  0  0
   19.4968   24.5129   55.1872 C   0  0  0  0  0  0  0  0  0  0  0  0
   21.6688   23.7344   56.2141 C   0  0  0  0  0  0  0  0  0  0  0  0
   22.6067   22.3007   54.3699 C   0  0  2  0  0  0  0  0  0  0  0  0
   21.8198   22.6795   53.3199 O   0  0  0  0  0  0  0  0  0  0  0  0
   23.9210   22.1516   52.1963 C   0  0  0  0  0  0  0  0  0  0  0  0
   19.1440   26.7847   54.4614 N   0  0  0  0  0  0  0  0  0  0  0  0
   19.8009   27.9751   54.5038 O   0  0  0  0  0  0  0  0  0  0  0  0
   20.0857   27.7876   56.8400 C   0  0  0  0  0  0  0  0  0  0  0  0
   20.5108   27.2295   59.1548 C   0  0  0  0  0  0  0  0  0  0  0  0
   18.9660   25.9985   60.4787 O   0  0  0  0  0  0  0  0  0  0  0  0
   18.4899   26.5312   58.1622 C   0  0  0  0  0  0  0  0  0  0  0  0
   18.8783   27.1283   56.9701 C   0  0  0  0  0  0  0  0  0  0  0  0
   18.5213   24.9819   52.0416 C   0  0  0  0  0  0  0  0  0  0  0  0
   17.7475   24.5364   50.9936 C   0  0  0  0  0  0  0  0  0  0  0  0
   16.3750   24.4258   51.1320 O   0  0  0  0  0  0  0  0  0  0  0  0
   18.3036   24.1899   49.7871 C   0  0  0  0  0  0  0  0  0  0  0  0
  1 17  1  0
  1 18  1  6
 19  2  2  0
  2 20  1  0
 20  3  2  0
  3 21  1  0
 21  4  1  0
  4 22  1  6
  4 23  1  0
  5 25  1  1
  5 26  1  0
 26  6  2  0
  6 27  1  0
 27  7  2  0
  7 28  1  0
  7 29  1  0
  8 28  1  6
 10  9  1  0
 11 10  2  0
 10 34  1  0
 11 12  1  0
 17 11  1  0
 12 13  1  0
 12 16  2  0
 14 13  1  1
 15 14  1  6
 23 14  1  6
 17 31  2  0
 18 19  1  0
 24 18  2  0
 21 22  1  6
 24 25  1  0
 26 30  1  0
 29 30  2  0
 31 32  1  0
 32 33  1  0
 32 34  2  0
M  END
$$$$
