
     RDKit          3D

 34 37  0  0  0  0  0  0  0  0999 V2000
   21.6118   25.1494   53.9049 C   0  0  0  0  0  0  0  0  0  0  0  0
   21.0305   22.7300   56.2682 C   0  0  0  0  0  0  0  0  0  0  0  0
   23.2686   21.8293   55.5757 C   0  0  0  0  0  0  0  0  0  0  0  0
   23.7414   22.0517   53.2628 C   0  0  2  0  0  0  0  0  0  0  0  0
   19.1310   27.5277   57.1513 C   0  0  0  0  0  0  0  0  0  0  0  0
   20.9442   29.0356   56.4138 C   0  0  0  0  0  0  0  0  0  0  0  0
   20.6619   30.7446   54.7691 C   0  0  0  0  0  0  0  0  0  0  0  0
   22.5497   32.1772   54.1749 C   0  0  0  0  0  0  0  0  0  0  0  0
   20.6827   24.6819   49.0244 O   0  0  0  0  0  0  0  0  0  0  0  0
   20.2538   24.8165   50.3612 C   0  0  0  0  0  0  0  0  0  0  0  0
   21.1915   24.8669   51.4100 C   0  0  0  0  0  0  0  0  0  0  0  0
   22.5997   24.7372   50.9762 C   0  0  0  0  0  0  0  0  0  0  0  0
   23.4972   23.7768   51.4244 O   0  0  0  0  0  0  0  0  0  0  0  0
   23.7070   22.4891   50.8983 C   0  0  2  0  0  0  0  0  0  0  0  0
   22.5697   21.8940   50.1531 C   0  0  0  0  0  0  0  0  0  0  0  0
   22.9095   25.6480   50.1046 O   0  0  0  0  0  0  0  0  0  0  0  0
   20.7384   25.0064   52.6781 C   0  0  0  0  0  0  0  0  0  0  0  0
   20.7864   24.9700   55.1235 C   0  0  0  0  0  0  0  0  0  0  0  0
   20.3851   23.7426   55.7646 C   0  0  0  0  0  0  0  0  0  0  0  0
   22.4317   22.4042   56.3959 C   0  0  0  0  0  0  0  0  0  0  0  0
   23.0103   21.3133   54.2025 C   0  0  2  0  0  0  0  0  0  0  0  0
   22.2531   22.0505   53.3374 O   0  0  0  0  0  0  0  0  0  0  0  0
   24.1706   21.4703   51.9434 C   0  0  0  0  0  0  0  0  0  0  0  0
   20.4061   26.1477   55.5994 N   0  0  0  0  0  0  0  0  0  0  0  0
   19.5735   26.2967   56.6649 O   0  0  0  0  0  0  0  0  0  0  0  0
   19.6222   28.6320   56.3218 C   0  0  0  0  0  0  0  0  0  0  0  0
   21.4514   30.0674   55.6552 C   0  0  0  0  0  0  0  0  0  0  0  0
   21.2057   31.7780   54.0217 O   0  0  0  0  0  0  0  0  0  0  0  0
   19.3386   30.3667   54.6534 C   0  0  0  0  0  0  0  0  0  0  0  0
   18.8354   29.3253   55.4219 C   0  0  0  0  0  0  0  0  0  0  0  0
   19.3573   25.0902   52.9022 C   0  0  0  0  0  0  0  0  0  0  0  0
   18.4670   25.0349   51.8534 C   0  0  0  0  0  0  0  0  0  0  0  0
   17.1050   25.1177   52.0840 O   0  0  0  0  0  0  0  0  0  0  0  0
   18.8939   24.8972   50.5557 C   0  0  0  0  0  0  0  0  0  0  0  0
  1 17  1  0
  1 18  1  6
 19  2  2  0
  2 20  1  0
 20  3  2  0
  3 21  1  0
 21  4  1  0
  4 22  1  6
  4 23  1  0
  5 25  1  1
  5 26  1  0
 26  6  2  0
  6 27  1  0
 27  7  2  0
  7 28  1  0
  7 29  1  0
  8 28  1  6
 10  9  1  0
 11 10  2  0
 10 34  1  0
 11 12  1  0
 17 11  1  0
 12 13  1  0
 12 16  2  0
 14 13  1  1
 15 14  1  6
 23 14  1  6
 17 31  2  0
 18 19  1  0
 24 18  2  0
 21 22  1  6
 24 25  1  0
 26 30  1  0
 29 30  2  0
 31 32  1  0
 32 33  1  0
 32 34  2  0
M  END
$$$$
