
     RDKit          3D

 34 37  0  0  0  0  0  0  0  0999 V2000
   21.4149   24.8775   52.8168 C   0  0  0  0  0  0  0  0  0  0  0  0
   22.3474   24.5124   56.0443 C   0  0  0  0  0  0  0  0  0  0  0  0
   24.6789   24.0362   55.1833 C   0  0  0  0  0  0  0  0  0  0  0  0
   24.1365   22.9363   53.1328 C   0  0  2  0  0  0  0  0  0  0  0  0
   18.8574   26.5039   55.9188 C   0  0  0  0  0  0  0  0  0  0  0  0
   18.0432   28.3290   57.4539 C   0  0  0  0  0  0  0  0  0  0  0  0
   19.5883   29.9442   58.3614 C   0  0  0  0  0  0  0  0  0  0  0  0
   21.0632   31.4864   59.5772 C   0  0  0  0  0  0  0  0  0  0  0  0
   20.3990   24.7913   48.0121 O   0  0  0  0  0  0  0  0  0  0  0  0
   20.0334   24.9571   49.3528 C   0  0  0  0  0  0  0  0  0  0  0  0
   20.9082   24.8436   50.3990 C   0  0  0  0  0  0  0  0  0  0  0  0
   22.3299   24.5255   50.1046 C   0  0  0  0  0  0  0  0  0  0  0  0
   23.1227   23.7047   50.8207 O   0  0  0  0  0  0  0  0  0  0  0  0
   23.4372   22.3744   50.8723 C   0  0  2  0  0  0  0  0  0  0  0  0
   22.2626   21.4294   50.9860 C   0  0  0  0  0  0  0  0  0  0  0  0
   22.7130   25.1704   49.0306 O   0  0  0  0  0  0  0  0  0  0  0  0
   20.4426   25.0291   51.7059 C   0  0  0  0  0  0  0  0  0  0  0  0
   20.9838   25.4004   54.1153 C   0  0  0  0  0  0  0  0  0  0  0  0
   21.2291   24.7757   55.4107 C   0  0  0  0  0  0  0  0  0  0  0  0
   23.7273   24.6974   55.7883 C   0  0  0  0  0  0  0  0  0  0  0  0
   24.5598   22.7028   54.4907 C   0  0  2  0  0  0  0  0  0  0  0  0
   23.2757   22.3745   54.0872 O   0  0  0  0  0  0  0  0  0  0  0  0
   24.4485   22.0289   52.0067 C   0  0  0  0  0  0  0  0  0  0  0  0
   20.3381   26.5270   54.0237 N   0  0  0  0  0  0  0  0  0  0  0  0
   19.1177   26.7950   54.5609 O   0  0  0  0  0  0  0  0  0  0  0  0
   19.0626   27.6947   56.7738 C   0  0  0  0  0  0  0  0  0  0  0  0
   18.3068   29.4476   58.2430 C   0  0  0  0  0  0  0  0  0  0  0  0
   19.7992   31.0570   59.1567 O   0  0  0  0  0  0  0  0  0  0  0  0
   20.5999   29.3057   57.6797 C   0  0  0  0  0  0  0  0  0  0  0  0
   20.3441   28.1979   56.8973 C   0  0  0  0  0  0  0  0  0  0  0  0
   19.1296   25.3181   51.9165 C   0  0  0  0  0  0  0  0  0  0  0  0
   18.2300   25.4354   50.8493 C   0  0  0  0  0  0  0  0  0  0  0  0
   16.8797   25.7343   51.0859 O   0  0  0  0  0  0  0  0  0  0  0  0
   18.6833   25.2543   49.5634 C   0  0  0  0  0  0  0  0  0  0  0  0
  1 17  1  0
 18  1  1  0
 19  2  2  0
  2 20  1  0
 20  3  2  0
  3 21  1  0
 21  4  1  0
 22  4  1  0
  4 23  1  6
 25  5  1  0
  5 26  1  0
 26  6  2  0
  6 27  1  0
 27  7  2  0
  7 28  1  0
  7 29  1  0
 28  8  1  0
 10  9  1  0
 11 10  2  0
 10 34  1  0
 11 12  1  0
 17 11  1  0
 12 13  1  0
 12 16  2  0
 13 14  1  0
 14 15  1  1
 14 23  1  0
 17 31  2  0
 18 19  1  0
 24 18  2  0
 21 22  1  1
 24 25  1  0
 26 30  1  0
 29 30  2  0
 31 32  1  0
 32 33  1  0
 32 34  2  0
M  END
$$$$
