
     RDKit          3D

 34 37  0  0  0  0  0  0  0  0999 V2000
   21.0544   25.6151   53.2498 C   0  0  0  0  0  0  0  0  0  0  0  0
   20.6186   23.5535   55.9584 C   0  0  0  0  0  0  0  0  0  0  0  0
   22.9607   22.7913   55.4750 C   0  0  0  0  0  0  0  0  0  0  0  0
   23.5027   22.6924   53.1687 C   0  0  2  0  0  0  0  0  0  0  0  0
   18.8766   28.2999   56.4169 C   0  0  0  0  0  0  0  0  0  0  0  0
   20.9945   29.2513   57.2623 C   0  0  0  0  0  0  0  0  0  0  0  0
   21.7769   28.9661   59.5011 C   0  0  0  0  0  0  0  0  0  0  0  0
   22.6649   28.6497   61.7551 C   0  0  0  0  0  0  0  0  0  0  0  0
   20.3743   24.2869   48.4880 O   0  0  0  0  0  0  0  0  0  0  0  0
   19.8804   24.5863   49.7747 C   0  0  0  0  0  0  0  0  0  0  0  0
   20.7653   24.8991   50.8240 C   0  0  0  0  0  0  0  0  0  0  0  0
   22.1959   24.8489   50.4510 C   0  0  0  0  0  0  0  0  0  0  0  0
   23.1646   24.0699   51.0703 O   0  0  0  0  0  0  0  0  0  0  0  0
   23.5212   22.7438   50.7645 C   0  0  2  0  0  0  0  0  0  0  0  0
   22.4792   21.9236   50.0980 C   0  0  0  0  0  0  0  0  0  0  0  0
   22.4496   25.6373   49.4515 O   0  0  0  0  0  0  0  0  0  0  0  0
   20.2497   25.1899   52.0415 C   0  0  0  0  0  0  0  0  0  0  0  0
   20.2019   25.5464   54.4610 C   0  0  0  0  0  0  0  0  0  0  0  0
   19.8977   24.4012   55.2823 C   0  0  0  0  0  0  0  0  0  0  0  0
   22.0388   23.3991   56.1710 C   0  0  0  0  0  0  0  0  0  0  0  0
   22.8103   22.0404   54.1974 C   0  0  2  0  0  0  0  0  0  0  0  0
   22.0200   22.5488   53.2065 O   0  0  0  0  0  0  0  0  0  0  0  0
   24.0401   21.9570   51.9715 C   0  0  0  0  0  0  0  0  0  0  0  0
   19.6886   26.7388   54.7310 N   0  0  0  0  0  0  0  0  0  0  0  0
   18.9987   27.0222   55.8687 O   0  0  0  0  0  0  0  0  0  0  0  0
   19.8485   28.5085   57.4943 C   0  0  0  0  0  0  0  0  0  0  0  0
   21.9359   29.4745   58.2428 C   0  0  0  0  0  0  0  0  0  0  0  0
   22.7445   29.2105   60.4634 O   0  0  0  0  0  0  0  0  0  0  0  0
   20.6446   28.2207   59.7651 C   0  0  0  0  0  0  0  0  0  0  0  0
   19.7005   28.0005   58.7709 C   0  0  0  0  0  0  0  0  0  0  0  0
   18.8591   25.1646   52.2156 C   0  0  0  0  0  0  0  0  0  0  0  0
   18.0218   24.8519   51.1683 C   0  0  0  0  0  0  0  0  0  0  0  0
   16.6500   24.8285   51.3494 O   0  0  0  0  0  0  0  0  0  0  0  0
   18.5124   24.5554   49.9207 C   0  0  0  0  0  0  0  0  0  0  0  0
  1 17  1  0
  1 18  1  6
 19  2  2  0
  2 20  1  0
 20  3  2  0
  3 21  1  0
 21  4  1  0
  4 22  1  6
  4 23  1  0
  5 25  1  1
  5 26  1  0
 26  6  2  0
  6 27  1  0
 27  7  2  0
  7 28  1  0
  7 29  1  0
  8 28  1  6
 10  9  1  0
 11 10  2  0
 10 34  1  0
 11 12  1  0
 17 11  1  0
 12 13  1  0
 12 16  2  0
 14 13  1  1
 15 14  1  6
 23 14  1  6
 17 31  2  0
 18 19  1  0
 24 18  2  0
 21 22  1  6
 24 25  1  0
 26 30  1  0
 29 30  2  0
 31 32  1  0
 32 33  1  0
 32 34  2  0
M  END
$$$$
