
     RDKit          3D

 34 37  0  0  0  0  0  0  0  0999 V2000
   21.0359   24.8030   53.0893 C   0  0  0  0  0  0  0  0  0  0  0  0
   21.6687   24.5711   56.4007 C   0  0  0  0  0  0  0  0  0  0  0  0
   24.0958   24.2107   55.7816 C   0  0  0  0  0  0  0  0  0  0  0  0
   23.8175   23.0317   53.7222 C   0  0  2  0  0  0  0  0  0  0  0  0
   18.6707   26.8341   56.2428 C   0  0  0  0  0  0  0  0  0  0  0  0
   20.1725   28.8544   56.1255 C   0  0  0  0  0  0  0  0  0  0  0  0
   21.9202   29.1759   57.7571 C   0  0  0  0  0  0  0  0  0  0  0  0
   22.7953   31.1372   58.9485 C   0  0  0  0  0  0  0  0  0  0  0  0
   20.4988   24.5413   48.2142 O   0  0  0  0  0  0  0  0  0  0  0  0
   19.9958   24.7180   49.5081 C   0  0  0  0  0  0  0  0  0  0  0  0
   20.7696   24.6810   50.6362 C   0  0  0  0  0  0  0  0  0  0  0  0
   22.2287   24.4392   50.4890 C   0  0  0  0  0  0  0  0  0  0  0  0
   22.9924   23.6835   51.3018 O   0  0  0  0  0  0  0  0  0  0  0  0
   23.3738   22.3755   51.4228 C   0  0  2  0  0  0  0  0  0  0  0  0
   22.2481   21.3667   51.4516 C   0  0  0  0  0  0  0  0  0  0  0  0
   22.6780   25.0791   49.4378 O   0  0  0  0  0  0  0  0  0  0  0  0
   20.1694   24.8708   51.8865 C   0  0  0  0  0  0  0  0  0  0  0  0
   20.4521   25.3312   54.3245 C   0  0  0  0  0  0  0  0  0  0  0  0
   20.6045   24.7535   55.6554 C   0  0  0  0  0  0  0  0  0  0  0  0
   23.0546   24.8298   56.2727 C   0  0  0  0  0  0  0  0  0  0  0  0
   24.1189   22.8562   55.1207 C   0  0  2  0  0  0  0  0  0  0  0  0
   22.9005   22.4440   54.6061 O   0  0  0  0  0  0  0  0  0  0  0  0
   24.2876   22.1170   52.6587 C   0  0  0  0  0  0  0  0  0  0  0  0
   19.7567   26.4158   54.1380 N   0  0  0  0  0  0  0  0  0  0  0  0
   18.6452   26.7818   54.8309 O   0  0  0  0  0  0  0  0  0  0  0  0
   19.7867   27.6756   56.7304 C   0  0  0  0  0  0  0  0  0  0  0  0
   21.2339   29.5990   56.6378 C   0  0  0  0  0  0  0  0  0  0  0  0
   22.9666   29.9499   58.2274 O   0  0  0  0  0  0  0  0  0  0  0  0
   21.5291   27.9987   58.3548 C   0  0  0  0  0  0  0  0  0  0  0  0
   20.4790   27.2580   57.8515 C   0  0  0  0  0  0  0  0  0  0  0  0
   18.8281   25.0878   51.9616 C   0  0  0  0  0  0  0  0  0  0  0  0
   18.0315   25.1267   50.8102 C   0  0  0  0  0  0  0  0  0  0  0  0
   16.6501   25.3522   50.9073 O   0  0  0  0  0  0  0  0  0  0  0  0
   18.6172   24.9412   49.5795 C   0  0  0  0  0  0  0  0  0  0  0  0
  1 17  1  0
 18  1  1  0
 19  2  2  0
  2 20  1  0
 20  3  2  0
  3 21  1  0
 21  4  1  0
 22  4  1  0
  4 23  1  6
 25  5  1  0
  5 26  1  0
 26  6  2  0
  6 27  1  0
 27  7  2  0
  7 28  1  0
  7 29  1  0
 28  8  1  0
 10  9  1  0
 11 10  2  0
 10 34  1  0
 11 12  1  0
 17 11  1  0
 12 13  1  0
 12 16  2  0
 13 14  1  0
 14 15  1  1
 14 23  1  0
 17 31  2  0
 18 19  1  0
 24 18  2  0
 21 22  1  1
 24 25  1  0
 26 30  1  0
 29 30  2  0
 31 32  1  0
 32 33  1  0
 32 34  2  0
M  END
$$$$
