
     RDKit          3D

 34 37  0  0  0  0  0  0  0  0999 V2000
   21.6369   24.2836   53.2168 C   0  0  0  0  0  0  0  0  0  0  0  0
   22.6294   23.2722   56.2846 C   0  0  0  0  0  0  0  0  0  0  0  0
   24.9241   22.9081   55.2818 C   0  0  0  0  0  0  0  0  0  0  0  0
   24.3000   22.2433   53.0733 C   0  0  2  0  0  0  0  0  0  0  0  0
   18.5976   26.8566   54.2428 C   0  0  0  0  0  0  0  0  0  0  0  0
   19.4242   28.4210   56.0371 C   0  0  0  0  0  0  0  0  0  0  0  0
   19.1876   30.8083   55.7828 C   0  0  0  0  0  0  0  0  0  0  0  0
   20.5838   32.4910   56.9015 C   0  0  0  0  0  0  0  0  0  0  0  0
   20.5108   25.1614   48.5172 O   0  0  0  0  0  0  0  0  0  0  0  0
   20.1812   25.0734   49.8744 C   0  0  0  0  0  0  0  0  0  0  0  0
   21.0751   24.7345   50.8536 C   0  0  0  0  0  0  0  0  0  0  0  0
   22.4787   24.4404   50.4629 C   0  0  0  0  0  0  0  0  0  0  0  0
   23.2601   23.4744   50.9836 O   0  0  0  0  0  0  0  0  0  0  0  0
   23.5319   22.1513   50.7677 C   0  0  2  0  0  0  0  0  0  0  0  0
   22.3299   21.2351   50.7295 C   0  0  0  0  0  0  0  0  0  0  0  0
   22.8584   25.2709   49.5236 O   0  0  0  0  0  0  0  0  0  0  0  0
   20.6454   24.6752   52.1844 C   0  0  0  0  0  0  0  0  0  0  0  0
   21.2525   24.5557   54.6037 C   0  0  0  0  0  0  0  0  0  0  0  0
   21.5064   23.6846   55.7461 C   0  0  0  0  0  0  0  0  0  0  0  0
   24.0085   23.4651   56.0301 C   0  0  0  0  0  0  0  0  0  0  0  0
   24.7459   21.7386   54.3477 C   0  0  2  0  0  0  0  0  0  0  0  0
   23.4430   21.5307   53.9250 O   0  0  0  0  0  0  0  0  0  0  0  0
   24.5567   21.5639   51.7845 C   0  0  0  0  0  0  0  0  0  0  0  0
   20.6421   25.6961   54.7504 N   0  0  0  0  0  0  0  0  0  0  0  0
   19.3093   25.8685   54.9595 O   0  0  0  0  0  0  0  0  0  0  0  0
   18.8222   28.2033   54.8147 C   0  0  0  0  0  0  0  0  0  0  0  0
   19.6050   29.7175   56.5168 C   0  0  0  0  0  0  0  0  0  0  0  0
   19.3894   32.0754   56.3017 O   0  0  0  0  0  0  0  0  0  0  0  0
   18.5879   30.5827   54.5641 C   0  0  0  0  0  0  0  0  0  0  0  0
   18.4066   29.3012   54.0849 C   0  0  0  0  0  0  0  0  0  0  0  0
   19.3476   24.9540   52.4841 C   0  0  0  0  0  0  0  0  0  0  0  0
   18.4285   25.3014   51.4860 C   0  0  0  0  0  0  0  0  0  0  0  0
   17.0944   25.5860   51.8142 O   0  0  0  0  0  0  0  0  0  0  0  0
   18.8465   25.3614   50.1769 C   0  0  0  0  0  0  0  0  0  0  0  0
  1 17  1  0
 18  1  1  0
 19  2  2  0
  2 20  1  0
 20  3  2  0
  3 21  1  0
 21  4  1  0
 22  4  1  0
  4 23  1  6
 25  5  1  0
  5 26  1  0
 26  6  2  0
  6 27  1  0
 27  7  2  0
  7 28  1  0
  7 29  1  0
 28  8  1  0
 10  9  1  0
 11 10  2  0
 10 34  1  0
 11 12  1  0
 17 11  1  0
 12 13  1  0
 12 16  2  0
 13 14  1  0
 14 15  1  1
 14 23  1  0
 17 31  2  0
 18 19  1  0
 24 18  2  0
 21 22  1  1
 24 25  1  0
 26 30  1  0
 29 30  2  0
 31 32  1  0
 32 33  1  0
 32 34  2  0
M  END
$$$$
