
     RDKit          3D

 34 37  0  0  0  0  0  0  0  0999 V2000
   21.8645   24.5833   52.9478 C   0  0  0  0  0  0  0  0  0  0  0  0
   23.3582   24.1175   55.9431 C   0  0  0  0  0  0  0  0  0  0  0  0
   25.4741   23.5846   54.6612 C   0  0  0  0  0  0  0  0  0  0  0  0
   24.5263   22.5481   52.7283 C   0  0  2  0  0  0  0  0  0  0  0  0
   19.6453   26.4263   56.2737 C   0  0  0  0  0  0  0  0  0  0  0  0
   17.1434   26.2374   56.0390 C   0  0  0  0  0  0  0  0  0  0  0  0
   15.9324   27.7464   54.5981 C   0  0  0  0  0  0  0  0  0  0  0  0
   14.5917   28.8652   52.8710 C   0  0  0  0  0  0  0  0  0  0  0  0
   19.9839   24.6353   48.4108 O   0  0  0  0  0  0  0  0  0  0  0  0
   19.8761   24.7836   49.7982 C   0  0  0  0  0  0  0  0  0  0  0  0
   20.9230   24.6188   50.6640 C   0  0  0  0  0  0  0  0  0  0  0  0
   22.2544   24.2612   50.1086 C   0  0  0  0  0  0  0  0  0  0  0  0
   23.1348   23.3995   50.6540 O   0  0  0  0  0  0  0  0  0  0  0  0
   23.4053   22.0589   50.6263 C   0  0  2  0  0  0  0  0  0  0  0  0
   22.2381   21.1503   50.9391 C   0  0  0  0  0  0  0  0  0  0  0  0
   22.4574   24.9166   48.9926 O   0  0  0  0  0  0  0  0  0  0  0  0
   20.7114   24.7907   52.0370 C   0  0  0  0  0  0  0  0  0  0  0  0
   21.6975   25.0913   54.3114 C   0  0  0  0  0  0  0  0  0  0  0  0
   22.1531   24.4308   55.5299 C   0  0  0  0  0  0  0  0  0  0  0  0
   24.6737   24.2630   55.4408 C   0  0  0  0  0  0  0  0  0  0  0  0
   25.1823   22.2713   53.9816 C   0  0  2  0  0  0  0  0  0  0  0  0
   23.8351   21.9938   53.8158 O   0  0  0  0  0  0  0  0  0  0  0  0
   24.5941   21.6559   51.5501 C   0  0  0  0  0  0  0  0  0  0  0  0
   21.0869   26.2401   54.3576 N   0  0  0  0  0  0  0  0  0  0  0  0
   20.7163   26.9038   55.4853 O   0  0  0  0  0  0  0  0  0  0  0  0
   18.3389   26.8479   55.7197 C   0  0  0  0  0  0  0  0  0  0  0  0
   15.9476   26.6859   55.4801 C   0  0  0  0  0  0  0  0  0  0  0  0
   14.7200   28.1546   54.0699 O   0  0  0  0  0  0  0  0  0  0  0  0
   17.1295   28.3502   54.2845 C   0  0  0  0  0  0  0  0  0  0  0  0
   18.3159   27.9099   54.8352 C   0  0  0  0  0  0  0  0  0  0  0  0
   19.4704   25.1176   52.4895 C   0  0  0  0  0  0  0  0  0  0  0  0
   18.3954   25.2874   51.6078 C   0  0  0  0  0  0  0  0  0  0  0  0
   17.1229   25.6249   52.0929 O   0  0  0  0  0  0  0  0  0  0  0  0
   18.5989   25.1199   50.2578 C   0  0  0  0  0  0  0  0  0  0  0  0
  1 17  1  0
 18  1  1  0
 19  2  2  0
  2 20  1  0
 20  3  2  0
  3 21  1  0
 21  4  1  0
 22  4  1  0
  4 23  1  6
 25  5  1  0
  5 26  1  0
 26  6  2  0
  6 27  1  0
 27  7  2  0
  7 28  1  0
  7 29  1  0
 28  8  1  0
 10  9  1  0
 11 10  2  0
 10 34  1  0
 11 12  1  0
 17 11  1  0
 12 13  1  0
 12 16  2  0
 13 14  1  0
 14 15  1  1
 14 23  1  0
 17 31  2  0
 18 19  1  0
 24 18  2  0
 21 22  1  1
 24 25  1  0
 26 30  1  0
 29 30  2  0
 31 32  1  0
 32 33  1  0
 32 34  2  0
M  END
$$$$
