
     RDKit          3D

 34 37  0  0  0  0  0  0  0  0999 V2000
   21.1521   24.9778   52.9344 C   0  0  0  0  0  0  0  0  0  0  0  0
   21.7987   24.6010   56.2298 C   0  0  0  0  0  0  0  0  0  0  0  0
   24.2359   24.3585   55.5931 C   0  0  0  0  0  0  0  0  0  0  0  0
   23.9957   23.2763   53.4766 C   0  0  2  0  0  0  0  0  0  0  0  0
   18.6755   26.8983   56.1396 C   0  0  0  0  0  0  0  0  0  0  0  0
   20.5227   28.5698   55.7593 C   0  0  0  0  0  0  0  0  0  0  0  0
   21.1056   30.1607   57.4766 C   0  0  0  0  0  0  0  0  0  0  0  0
   22.8261   31.8622   57.0561 C   0  0  0  0  0  0  0  0  0  0  0  0
   20.6157   24.9446   48.0523 O   0  0  0  0  0  0  0  0  0  0  0  0
   20.1092   25.0376   49.3535 C   0  0  0  0  0  0  0  0  0  0  0  0
   20.8859   24.9709   50.4783 C   0  0  0  0  0  0  0  0  0  0  0  0
   22.3523   24.7887   50.3189 C   0  0  0  0  0  0  0  0  0  0  0  0
   23.1437   24.0202   51.0924 O   0  0  0  0  0  0  0  0  0  0  0  0
   23.5713   22.7221   51.1470 C   0  0  2  0  0  0  0  0  0  0  0  0
   22.4820   21.6739   51.1245 C   0  0  0  0  0  0  0  0  0  0  0  0
   22.7769   25.4964   49.3016 O   0  0  0  0  0  0  0  0  0  0  0  0
   20.2816   25.0757   51.7365 C   0  0  0  0  0  0  0  0  0  0  0  0
   20.5522   25.4218   54.1947 C   0  0  0  0  0  0  0  0  0  0  0  0
   20.7274   24.7831   55.4947 C   0  0  0  0  0  0  0  0  0  0  0  0
   23.1743   24.9148   56.1150 C   0  0  0  0  0  0  0  0  0  0  0  0
   24.3057   23.0409   54.8644 C   0  0  2  0  0  0  0  0  0  0  0  0
   23.1016   22.6125   54.3296 O   0  0  0  0  0  0  0  0  0  0  0  0
   24.4959   22.4338   52.3681 C   0  0  0  0  0  0  0  0  0  0  0  0
   19.8186   26.4891   54.0635 N   0  0  0  0  0  0  0  0  0  0  0  0
   18.6654   26.7540   54.7340 O   0  0  0  0  0  0  0  0  0  0  0  0
   19.5389   28.0252   56.5591 C   0  0  0  0  0  0  0  0  0  0  0  0
   21.3008   29.6319   56.2176 C   0  0  0  0  0  0  0  0  0  0  0  0
   21.9036   31.2148   57.8860 O   0  0  0  0  0  0  0  0  0  0  0  0
   20.1221   29.6117   58.2685 C   0  0  0  0  0  0  0  0  0  0  0  0
   19.3491   28.5602   57.8194 C   0  0  0  0  0  0  0  0  0  0  0  0
   18.9336   25.2411   51.8225 C   0  0  0  0  0  0  0  0  0  0  0  0
   18.1340   25.3100   50.6746 C   0  0  0  0  0  0  0  0  0  0  0  0
   16.7457   25.4813   50.7831 O   0  0  0  0  0  0  0  0  0  0  0  0
   18.7236   25.2080   49.4361 C   0  0  0  0  0  0  0  0  0  0  0  0
  1 17  1  0
 18  1  1  0
 19  2  2  0
  2 20  1  0
 20  3  2  0
  3 21  1  0
 21  4  1  0
 22  4  1  0
  4 23  1  6
 25  5  1  0
  5 26  1  0
 26  6  2  0
  6 27  1  0
 27  7  2  0
  7 28  1  0
  7 29  1  0
 28  8  1  0
 10  9  1  0
 11 10  2  0
 10 34  1  0
 11 12  1  0
 17 11  1  0
 12 13  1  0
 12 16  2  0
 13 14  1  0
 14 15  1  1
 14 23  1  0
 17 31  2  0
 18 19  1  0
 24 18  2  0
 21 22  1  1
 24 25  1  0
 26 30  1  0
 29 30  2  0
 31 32  1  0
 32 33  1  0
 32 34  2  0
M  END
$$$$
