
     RDKit          3D

 34 37  0  0  0  0  0  0  0  0999 V2000
   20.6627   25.5413   53.2977 C   0  0  0  0  0  0  0  0  0  0  0  0
   20.0179   23.5484   56.0160 C   0  0  0  0  0  0  0  0  0  0  0  0
   22.4144   22.8389   55.7853 C   0  0  0  0  0  0  0  0  0  0  0  0
   23.1805   22.6879   53.5464 C   0  0  2  0  0  0  0  0  0  0  0  0
   19.6508   28.4911   56.1359 C   0  0  0  0  0  0  0  0  0  0  0  0
   20.0654   27.3937   58.3106 C   0  0  0  0  0  0  0  0  0  0  0  0
   22.2445   27.0283   59.2182 C   0  0  0  0  0  0  0  0  0  0  0  0
   22.5089   26.2350   61.5139 C   0  0  0  0  0  0  0  0  0  0  0  0
   20.4830   24.0556   48.5373 O   0  0  0  0  0  0  0  0  0  0  0  0
   19.8589   24.3785   49.7602 C   0  0  0  0  0  0  0  0  0  0  0  0
   20.6293   24.7468   50.8794 C   0  0  0  0  0  0  0  0  0  0  0  0
   22.0902   24.7261   50.6480 C   0  0  0  0  0  0  0  0  0  0  0  0
   23.0135   23.9933   51.3823 O   0  0  0  0  0  0  0  0  0  0  0  0
   23.4316   22.6695   51.1548 C   0  0  2  0  0  0  0  0  0  0  0  0
   22.4805   21.8010   50.4174 C   0  0  0  0  0  0  0  0  0  0  0  0
   22.4199   25.4918   49.6529 O   0  0  0  0  0  0  0  0  0  0  0  0
   19.9905   25.0584   52.0315 C   0  0  0  0  0  0  0  0  0  0  0  0
   19.6985   25.4841   54.4226 C   0  0  0  0  0  0  0  0  0  0  0  0
   19.3449   24.3552   55.2468 C   0  0  0  0  0  0  0  0  0  0  0  0
   21.4141   23.4405   56.3694 C   0  0  0  0  0  0  0  0  0  0  0  0
   22.4081   22.0470   54.5238 C   0  0  2  0  0  0  0  0  0  0  0  0
   21.7053   22.5036   53.4455 O   0  0  0  0  0  0  0  0  0  0  0  0
   23.8503   21.9333   52.4307 C   0  0  0  0  0  0  0  0  0  0  0  0
   19.1313   26.6688   54.6036 N   0  0  0  0  0  0  0  0  0  0  0  0
   19.8219   27.7913   54.9406 O   0  0  0  0  0  0  0  0  0  0  0  0
   20.5661   28.0019   57.1712 C   0  0  0  0  0  0  0  0  0  0  0  0
   20.8856   26.9184   59.3100 C   0  0  0  0  0  0  0  0  0  0  0  0
   23.0397   26.5388   60.2430 O   0  0  0  0  0  0  0  0  0  0  0  0
   22.7758   27.6300   58.0944 C   0  0  0  0  0  0  0  0  0  0  0  0
   21.9417   28.1064   57.0915 C   0  0  0  0  0  0  0  0  0  0  0  0
   18.5906   24.9988   52.0714 C   0  0  0  0  0  0  0  0  0  0  0  0
   17.8674   24.6321   50.9587 C   0  0  0  0  0  0  0  0  0  0  0  0
   16.4856   24.5752   51.0073 O   0  0  0  0  0  0  0  0  0  0  0  0
   18.4844   24.3132   49.7744 C   0  0  0  0  0  0  0  0  0  0  0  0
  1 17  1  0
  1 18  1  6
 19  2  2  0
  2 20  1  0
 20  3  2  0
  3 21  1  0
 21  4  1  0
  4 22  1  6
  4 23  1  0
  5 25  1  1
  5 26  1  0
 26  6  2  0
  6 27  1  0
 27  7  2  0
  7 28  1  0
  7 29  1  0
  8 28  1  6
 10  9  1  0
 11 10  2  0
 10 34  1  0
 11 12  1  0
 17 11  1  0
 12 13  1  0
 12 16  2  0
 14 13  1  1
 15 14  1  6
 23 14  1  6
 17 31  2  0
 18 19  1  0
 24 18  2  0
 21 22  1  6
 24 25  1  0
 26 30  1  0
 29 30  2  0
 31 32  1  0
 32 33  1  0
 32 34  2  0
M  END
$$$$
