
     RDKit          3D

 34 37  0  0  0  0  0  0  0  0999 V2000
   21.5589   25.0785   52.5900 C   0  0  0  0  0  0  0  0  0  0  0  0
   22.7716   25.1913   55.7422 C   0  0  0  0  0  0  0  0  0  0  0  0
   24.9185   24.2250   54.8142 C   0  0  0  0  0  0  0  0  0  0  0  0
   24.0258   22.8524   53.0741 C   0  0  2  0  0  0  0  0  0  0  0  0
   18.5501   26.5533   54.0647 C   0  0  0  0  0  0  0  0  0  0  0  0
   19.2260   25.2449   56.1097 C   0  0  0  0  0  0  0  0  0  0  0  0
   18.1332   25.6311   58.2255 C   0  0  0  0  0  0  0  0  0  0  0  0
   19.1012   24.9728   60.3845 C   0  0  0  0  0  0  0  0  0  0  0  0
   20.0396   24.2442   47.9943 O   0  0  0  0  0  0  0  0  0  0  0  0
   19.8419   24.7100   49.2991 C   0  0  0  0  0  0  0  0  0  0  0  0
   20.8001   24.6672   50.2751 C   0  0  0  0  0  0  0  0  0  0  0  0
   22.1300   24.0943   49.9400 C   0  0  0  0  0  0  0  0  0  0  0  0
   22.8814   23.3146   50.7416 O   0  0  0  0  0  0  0  0  0  0  0  0
   23.0255   21.9861   51.0336 C   0  0  2  0  0  0  0  0  0  0  0  0
   21.7576   21.2621   51.4257 C   0  0  0  0  0  0  0  0  0  0  0  0
   22.4776   24.4632   48.7320 O   0  0  0  0  0  0  0  0  0  0  0  0
   20.5026   25.1606   51.5508 C   0  0  0  0  0  0  0  0  0  0  0  0
   21.3381   25.8928   53.7872 C   0  0  0  0  0  0  0  0  0  0  0  0
   21.6361   25.4927   55.1582 C   0  0  0  0  0  0  0  0  0  0  0  0
   24.1291   25.1202   55.3471 C   0  0  0  0  0  0  0  0  0  0  0  0
   24.5562   22.8177   54.4139 C   0  0  2  0  0  0  0  0  0  0  0  0
   23.2052   22.6119   54.1861 O   0  0  0  0  0  0  0  0  0  0  0  0
   24.0979   21.7143   52.1316 C   0  0  0  0  0  0  0  0  0  0  0  0
   20.8369   27.0648   53.5228 N   0  0  0  0  0  0  0  0  0  0  0  0
   19.5849   27.4894   53.8421 O   0  0  0  0  0  0  0  0  0  0  0  0
   18.4414   26.2015   55.4985 C   0  0  0  0  0  0  0  0  0  0  0  0
   19.0710   24.9628   57.4661 C   0  0  0  0  0  0  0  0  0  0  0  0
   18.0174   25.3155   59.5680 O   0  0  0  0  0  0  0  0  0  0  0  0
   17.3544   26.5841   57.6082 C   0  0  0  0  0  0  0  0  0  0  0  0
   17.5039   26.8671   56.2657 C   0  0  0  0  0  0  0  0  0  0  0  0
   19.2674   25.6735   51.8013 C   0  0  0  0  0  0  0  0  0  0  0  0
   18.2829   25.7198   50.8061 C   0  0  0  0  0  0  0  0  0  0  0  0
   17.0149   26.2528   51.0829 O   0  0  0  0  0  0  0  0  0  0  0  0
   18.5710   25.2365   49.5509 C   0  0  0  0  0  0  0  0  0  0  0  0
  1 17  1  0
 18  1  1  0
 19  2  2  0
  2 20  1  0
 20  3  2  0
  3 21  1  0
 21  4  1  0
 22  4  1  0
  4 23  1  6
 25  5  1  0
  5 26  1  0
 26  6  2  0
  6 27  1  0
 27  7  2  0
  7 28  1  0
  7 29  1  0
 28  8  1  0
 10  9  1  0
 11 10  2  0
 10 34  1  0
 11 12  1  0
 17 11  1  0
 12 13  1  0
 12 16  2  0
 13 14  1  0
 14 15  1  1
 14 23  1  0
 17 31  2  0
 18 19  1  0
 24 18  2  0
 21 22  1  1
 24 25  1  0
 26 30  1  0
 29 30  2  0
 31 32  1  0
 32 33  1  0
 32 34  2  0
M  END
$$$$
