
     RDKit          3D

 34 37  0  0  0  0  0  0  0  0999 V2000
   20.3535   25.8292   53.1561 C   0  0  0  0  0  0  0  0  0  0  0  0
   19.9695   24.2149   56.1600 C   0  0  0  0  0  0  0  0  0  0  0  0
   22.4078   23.6677   55.9251 C   0  0  0  0  0  0  0  0  0  0  0  0
   23.1079   23.2481   53.6988 C   0  0  2  0  0  0  0  0  0  0  0  0
   18.6844   27.6871   56.6944 C   0  0  0  0  0  0  0  0  0  0  0  0
   19.9712   26.6142   58.5106 C   0  0  0  0  0  0  0  0  0  0  0  0
   22.2987   26.9934   58.8906 C   0  0  0  0  0  0  0  0  0  0  0  0
   24.6136   26.2262   59.0384 C   0  0  0  0  0  0  0  0  0  0  0  0
   20.1381   23.6481   48.6730 O   0  0  0  0  0  0  0  0  0  0  0  0
   19.5308   24.0983   49.8637 C   0  0  0  0  0  0  0  0  0  0  0  0
   20.3051   24.6864   50.8818 C   0  0  0  0  0  0  0  0  0  0  0  0
   21.7539   24.7455   50.5894 C   0  0  0  0  0  0  0  0  0  0  0  0
   22.7594   24.2030   51.3789 O   0  0  0  0  0  0  0  0  0  0  0  0
   23.2788   22.8967   51.3259 C   0  0  2  0  0  0  0  0  0  0  0  0
   22.3792   21.8576   50.7657 C   0  0  0  0  0  0  0  0  0  0  0  0
   21.9847   25.3793   49.4803 O   0  0  0  0  0  0  0  0  0  0  0  0
   19.6816   25.1140   52.0048 C   0  0  0  0  0  0  0  0  0  0  0  0
   19.4359   25.8637   54.3202 C   0  0  0  0  0  0  0  0  0  0  0  0
   19.2059   24.8447   55.3139 C   0  0  0  0  0  0  0  0  0  0  0  0
   21.3809   24.2693   56.4613 C   0  0  0  0  0  0  0  0  0  0  0  0
   22.4251   22.7003   54.7926 C   0  0  2  0  0  0  0  0  0  0  0  0
   21.6506   22.9368   53.6929 O   0  0  0  0  0  0  0  0  0  0  0  0
   23.8004   22.3916   52.6743 C   0  0  0  0  0  0  0  0  0  0  0  0
   18.7781   27.0144   54.3541 N   0  0  0  0  0  0  0  0  0  0  0  0
   18.9247   27.9374   55.3426 O   0  0  0  0  0  0  0  0  0  0  0  0
   19.9377   27.4725   57.4237 C   0  0  0  0  0  0  0  0  0  0  0  0
   21.1245   26.3806   59.2266 C   0  0  0  0  0  0  0  0  0  0  0  0
   23.4405   26.7350   59.6334 O   0  0  0  0  0  0  0  0  0  0  0  0
   22.2992   27.8554   57.8116 C   0  0  0  0  0  0  0  0  0  0  0  0
   21.1320   28.0852   57.0952 C   0  0  0  0  0  0  0  0  0  0  0  0
   18.2938   24.9523   52.1166 C   0  0  0  0  0  0  0  0  0  0  0  0
   17.5666   24.3703   51.1026 C   0  0  0  0  0  0  0  0  0  0  0  0
   16.1968   24.2140   51.2218 O   0  0  0  0  0  0  0  0  0  0  0  0
   18.1678   23.9292   49.9498 C   0  0  0  0  0  0  0  0  0  0  0  0
  1 17  1  0
  1 18  1  6
 19  2  2  0
  2 20  1  0
 20  3  2  0
  3 21  1  0
 21  4  1  0
  4 22  1  6
  4 23  1  0
  5 25  1  1
  5 26  1  0
 26  6  2  0
  6 27  1  0
 27  7  2  0
  7 28  1  0
  7 29  1  0
  8 28  1  6
 10  9  1  0
 11 10  2  0
 10 34  1  0
 11 12  1  0
 17 11  1  0
 12 13  1  0
 12 16  2  0
 14 13  1  1
 15 14  1  6
 23 14  1  6
 17 31  2  0
 18 19  1  0
 24 18  2  0
 21 22  1  6
 24 25  1  0
 26 30  1  0
 29 30  2  0
 31 32  1  0
 32 33  1  0
 32 34  2  0
M  END
$$$$
