
     RDKit          3D

 34 37  0  0  0  0  0  0  0  0999 V2000
   21.2732   24.9534   53.3666 C   0  0  0  0  0  0  0  0  0  0  0  0
   21.6130   22.5506   55.7930 C   0  0  0  0  0  0  0  0  0  0  0  0
   23.8624   22.1394   54.7583 C   0  0  0  0  0  0  0  0  0  0  0  0
   23.9146   22.3783   52.3998 C   0  0  2  0  0  0  0  0  0  0  0  0
   19.5848   28.0909   55.1407 C   0  0  0  0  0  0  0  0  0  0  0  0
   19.6755   27.2662   57.4682 C   0  0  0  0  0  0  0  0  0  0  0  0
   17.8343   27.3724   58.9861 C   0  0  0  0  0  0  0  0  0  0  0  0
   18.1261   26.6560   61.3036 C   0  0  0  0  0  0  0  0  0  0  0  0
   19.7363   24.1210   48.6926 O   0  0  0  0  0  0  0  0  0  0  0  0
   19.4978   24.2054   50.0801 C   0  0  0  0  0  0  0  0  0  0  0  0
   20.5499   24.4975   50.9688 C   0  0  0  0  0  0  0  0  0  0  0  0
   21.8683   24.6649   50.3193 C   0  0  0  0  0  0  0  0  0  0  0  0
   23.0146   23.9415   50.6216 O   0  0  0  0  0  0  0  0  0  0  0  0
   23.4226   22.7135   50.0697 C   0  0  2  0  0  0  0  0  0  0  0  0
   22.3460   21.8572   49.5126 C   0  0  0  0  0  0  0  0  0  0  0  0
   21.8307   25.5901   49.4095 O   0  0  0  0  0  0  0  0  0  0  0  0
   20.2764   24.5789   52.2921 C   0  0  0  0  0  0  0  0  0  0  0  0
   20.7046   24.6404   54.6997 C   0  0  0  0  0  0  0  0  0  0  0  0
   20.6893   23.3783   55.3965 C   0  0  0  0  0  0  0  0  0  0  0  0
   23.0542   22.5453   55.6994 C   0  0  0  0  0  0  0  0  0  0  0  0
   23.5185   21.5310   53.4429 C   0  0  2  0  0  0  0  0  0  0  0  0
   22.4932   22.0530   52.7070 O   0  0  0  0  0  0  0  0  0  0  0  0
   24.2554   21.8590   51.0296 C   0  0  0  0  0  0  0  0  0  0  0  0
   20.1493   25.7219   55.2289 N   0  0  0  0  0  0  0  0  0  0  0  0
   20.3173   26.9762   54.7299 O   0  0  0  0  0  0  0  0  0  0  0  0
   18.9554   27.8594   56.4442 C   0  0  0  0  0  0  0  0  0  0  0  0
   19.1274   27.0286   58.7094 C   0  0  0  0  0  0  0  0  0  0  0  0
   17.3152   27.1185   60.2464 O   0  0  0  0  0  0  0  0  0  0  0  0
   17.0889   27.9659   57.9864 C   0  0  0  0  0  0  0  0  0  0  0  0
   17.6492   28.2019   56.7379 C   0  0  0  0  0  0  0  0  0  0  0  0
   18.9622   24.3652   52.7302 C   0  0  0  0  0  0  0  0  0  0  0  0
   17.9569   24.0787   51.8341 C   0  0  0  0  0  0  0  0  0  0  0  0
   16.6623   23.8684   52.2756 O   0  0  0  0  0  0  0  0  0  0  0  0
   18.2002   23.9923   50.4856 C   0  0  0  0  0  0  0  0  0  0  0  0
  1 17  1  0
  1 18  1  6
 19  2  2  0
  2 20  1  0
 20  3  2  0
  3 21  1  0
 21  4  1  0
  4 22  1  6
  4 23  1  0
  5 25  1  1
  5 26  1  0
 26  6  2  0
  6 27  1  0
 27  7  2  0
  7 28  1  0
  7 29  1  0
  8 28  1  6
 10  9  1  0
 11 10  2  0
 10 34  1  0
 11 12  1  0
 17 11  1  0
 12 13  1  0
 12 16  2  0
 14 13  1  1
 15 14  1  6
 23 14  1  6
 17 31  2  0
 18 19  1  0
 24 18  2  0
 21 22  1  1
 24 25  1  0
 26 30  1  0
 29 30  2  0
 31 32  1  0
 32 33  1  0
 32 34  2  0
M  END
$$$$
