
     RDKit          3D

 34 37  0  0  0  0  0  0  0  0999 V2000
   21.1616   24.9638   52.9703 C   0  0  0  0  0  0  0  0  0  0  0  0
   21.9422   24.3513   56.2006 C   0  0  0  0  0  0  0  0  0  0  0  0
   24.3199   23.9734   55.4210 C   0  0  0  0  0  0  0  0  0  0  0  0
   23.8949   23.0357   53.2649 C   0  0  2  0  0  0  0  0  0  0  0  0
   19.2652   27.1698   56.4389 C   0  0  0  0  0  0  0  0  0  0  0  0
   20.3797   29.1884   57.4557 C   0  0  0  0  0  0  0  0  0  0  0  0
   20.9161   29.2349   59.8073 C   0  0  0  0  0  0  0  0  0  0  0  0
   21.5719   29.3888   62.1692 C   0  0  0  0  0  0  0  0  0  0  0  0
   20.3810   25.2524   48.1297 O   0  0  0  0  0  0  0  0  0  0  0  0
   19.9484   25.3055   49.4595 C   0  0  0  0  0  0  0  0  0  0  0  0
   20.7732   25.1185   50.5354 C   0  0  0  0  0  0  0  0  0  0  0  0
   22.2123   24.8420   50.2874 C   0  0  0  0  0  0  0  0  0  0  0  0
   22.9823   23.9756   50.9741 O   0  0  0  0  0  0  0  0  0  0  0  0
   23.3147   22.6493   50.9349 C   0  0  2  0  0  0  0  0  0  0  0  0
   22.1510   21.6844   50.9146 C   0  0  0  0  0  0  0  0  0  0  0  0
   22.6367   25.5756   49.2885 O   0  0  0  0  0  0  0  0  0  0  0  0
   20.2419   25.1928   51.8283 C   0  0  0  0  0  0  0  0  0  0  0  0
   20.6599   25.3754   54.2835 C   0  0  0  0  0  0  0  0  0  0  0  0
   20.8520   24.6515   55.5355 C   0  0  0  0  0  0  0  0  0  0  0  0
   23.3299   24.5725   56.0288 C   0  0  0  0  0  0  0  0  0  0  0  0
   24.2555   22.6987   54.6191 C   0  0  2  0  0  0  0  0  0  0  0  0
   22.9978   22.3888   54.1276 O   0  0  0  0  0  0  0  0  0  0  0  0
   24.2753   22.2256   52.0869 C   0  0  0  0  0  0  0  0  0  0  0  0
   20.0017   26.4980   54.2502 N   0  0  0  0  0  0  0  0  0  0  0  0
   19.9629   27.4316   55.2384 O   0  0  0  0  0  0  0  0  0  0  0  0
   19.8461   27.9213   57.5743 C   0  0  0  0  0  0  0  0  0  0  0  0
   20.9114   29.8399   58.5676 C   0  0  0  0  0  0  0  0  0  0  0  0
   21.4552   29.9226   60.8806 O   0  0  0  0  0  0  0  0  0  0  0  0
   20.3818   27.9707   59.9173 C   0  0  0  0  0  0  0  0  0  0  0  0
   19.8543   27.3215   58.8196 C   0  0  0  0  0  0  0  0  0  0  0  0
   18.9159   25.4484   51.9959 C   0  0  0  0  0  0  0  0  0  0  0  0
   18.0672   25.6405   50.8983 C   0  0  0  0  0  0  0  0  0  0  0  0
   16.7026   25.9035   51.0908 O   0  0  0  0  0  0  0  0  0  0  0  0
   18.5851   25.5689   49.6260 C   0  0  0  0  0  0  0  0  0  0  0  0
  1 17  1  0
 18  1  1  0
 19  2  2  0
  2 20  1  0
 20  3  2  0
  3 21  1  0
 21  4  1  0
 22  4  1  0
  4 23  1  6
 25  5  1  0
  5 26  1  0
 26  6  2  0
  6 27  1  0
 27  7  2  0
  7 28  1  0
  7 29  1  0
 28  8  1  0
 10  9  1  0
 11 10  2  0
 10 34  1  0
 11 12  1  0
 17 11  1  0
 12 13  1  0
 12 16  2  0
 13 14  1  0
 14 15  1  1
 14 23  1  0
 17 31  2  0
 18 19  1  0
 24 18  2  0
 21 22  1  1
 24 25  1  0
 26 30  1  0
 29 30  2  0
 31 32  1  0
 32 33  1  0
 32 34  2  0
M  END
$$$$
