
     RDKit          3D

 34 37  0  0  0  0  0  0  0  0999 V2000
   20.8935   25.5443   53.5256 C   0  0  0  0  0  0  0  0  0  0  0  0
   20.5248   23.2819   56.0794 C   0  0  0  0  0  0  0  0  0  0  0  0
   22.9185   22.6933   55.6066 C   0  0  0  0  0  0  0  0  0  0  0  0
   23.5150   22.7829   53.3135 C   0  0  2  0  0  0  0  0  0  0  0  0
   19.8400   28.6220   56.1358 C   0  0  0  0  0  0  0  0  0  0  0  0
   19.6336   27.8626   58.4780 C   0  0  0  0  0  0  0  0  0  0  0  0
   21.5014   27.4489   59.9082 C   0  0  0  0  0  0  0  0  0  0  0  0
   21.1267   26.7610   62.2224 C   0  0  0  0  0  0  0  0  0  0  0  0
   20.3977   24.5041   48.6704 O   0  0  0  0  0  0  0  0  0  0  0  0
   19.8591   24.6861   49.9611 C   0  0  0  0  0  0  0  0  0  0  0  0
   20.7006   24.9786   51.0511 C   0  0  0  0  0  0  0  0  0  0  0  0
   22.1393   25.0380   50.7123 C   0  0  0  0  0  0  0  0  0  0  0  0
   23.1397   24.2771   51.3030 O   0  0  0  0  0  0  0  0  0  0  0  0
   23.5823   22.9982   50.9192 C   0  0  2  0  0  0  0  0  0  0  0  0
   22.6064   22.1651   50.1733 C   0  0  0  0  0  0  0  0  0  0  0  0
   22.3664   25.9058   49.7740 O   0  0  0  0  0  0  0  0  0  0  0  0
   20.1422   25.1554   52.2715 C   0  0  0  0  0  0  0  0  0  0  0  0
   20.0208   25.3437   54.7074 C   0  0  0  0  0  0  0  0  0  0  0  0
   19.7687   24.1296   55.4428 C   0  0  0  0  0  0  0  0  0  0  0  0
   21.9468   23.1972   56.3176 C   0  0  0  0  0  0  0  0  0  0  0  0
   22.8413   22.0231   54.2786 C   0  0  2  0  0  0  0  0  0  0  0  0
   22.0432   22.5502   53.3036 O   0  0  0  0  0  0  0  0  0  0  0  0
   24.1216   22.1632   52.0842 C   0  0  0  0  0  0  0  0  0  0  0  0
   19.4306   26.4828   55.0426 N   0  0  0  0  0  0  0  0  0  0  0  0
   20.0872   27.6698   55.1458 O   0  0  0  0  0  0  0  0  0  0  0  0
   20.4411   28.2260   57.4128 C   0  0  0  0  0  0  0  0  0  0  0  0
   20.1520   27.4832   59.6965 C   0  0  0  0  0  0  0  0  0  0  0  0
   21.9885   27.0621   61.1473 O   0  0  0  0  0  0  0  0  0  0  0  0
   22.3345   27.8055   58.8659 C   0  0  0  0  0  0  0  0  0  0  0  0
   21.8035   28.1867   57.6407 C   0  0  0  0  0  0  0  0  0  0  0  0
   18.7523   25.0366   52.4080 C   0  0  0  0  0  0  0  0  0  0  0  0
   17.9581   24.7469   51.3212 C   0  0  0  0  0  0  0  0  0  0  0  0
   16.5867   24.6306   51.4652 O   0  0  0  0  0  0  0  0  0  0  0  0
   18.4926   24.5650   50.0696 C   0  0  0  0  0  0  0  0  0  0  0  0
  1 17  1  0
  1 18  1  6
 19  2  2  0
  2 20  1  0
 20  3  2  0
  3 21  1  0
 21  4  1  0
  4 22  1  6
  4 23  1  0
  5 25  1  1
  5 26  1  0
 26  6  2  0
  6 27  1  0
 27  7  2  0
  7 28  1  0
  7 29  1  0
  8 28  1  6
 10  9  1  0
 11 10  2  0
 10 34  1  0
 11 12  1  0
 17 11  1  0
 12 13  1  0
 12 16  2  0
 14 13  1  1
 15 14  1  6
 23 14  1  6
 17 31  2  0
 18 19  1  0
 24 18  2  0
 21 22  1  6
 24 25  1  0
 26 30  1  0
 29 30  2  0
 31 32  1  0
 32 33  1  0
 32 34  2  0
M  END
$$$$
