
     RDKit          3D

 34 37  0  0  0  0  0  0  0  0999 V2000
   21.3421   24.1188   53.5087 C   0  0  0  0  0  0  0  0  0  0  0  0
   22.6633   23.5941   56.5744 C   0  0  0  0  0  0  0  0  0  0  0  0
   24.8767   24.3520   55.6097 C   0  0  0  0  0  0  0  0  0  0  0  0
   24.6462   23.5346   53.3765 C   0  0  2  0  0  0  0  0  0  0  0  0
   20.1818   27.0493   54.0982 C   0  0  0  0  0  0  0  0  0  0  0  0
   17.7770   27.5161   53.5074 C   0  0  0  0  0  0  0  0  0  0  0  0
   17.0956   27.6892   51.1996 C   0  0  0  0  0  0  0  0  0  0  0  0
   15.6831   26.9533   49.3301 C   0  0  0  0  0  0  0  0  0  0  0  0
   19.9770   24.5075   48.8066 O   0  0  0  0  0  0  0  0  0  0  0  0
   19.7136   24.2414   50.1550 C   0  0  0  0  0  0  0  0  0  0  0  0
   20.6553   24.3247   51.1445 C   0  0  0  0  0  0  0  0  0  0  0  0
   22.0400   24.7189   50.7756 C   0  0  0  0  0  0  0  0  0  0  0  0
   23.1738   24.2061   51.2920 O   0  0  0  0  0  0  0  0  0  0  0  0
   24.0252   23.1622   51.0548 C   0  0  2  0  0  0  0  0  0  0  0  0
   23.3793   21.7976   50.9746 C   0  0  0  0  0  0  0  0  0  0  0  0
   22.0031   25.6560   49.8609 O   0  0  0  0  0  0  0  0  0  0  0  0
   20.2900   24.0388   52.4652 C   0  0  0  0  0  0  0  0  0  0  0  0
   20.8643   24.1465   54.8930 C   0  0  0  0  0  0  0  0  0  0  0  0
   21.4809   23.4589   56.0224 C   0  0  0  0  0  0  0  0  0  0  0  0
   23.8014   24.4058   56.3510 C   0  0  0  0  0  0  0  0  0  0  0  0
   25.2637   23.2569   54.6490 C   0  0  2  0  0  0  0  0  0  0  0  0
   24.2057   22.4853   54.1966 O   0  0  0  0  0  0  0  0  0  0  0  0
   25.1970   23.0840   52.0795 C   0  0  0  0  0  0  0  0  0  0  0  0
   19.7968   24.8746   55.0507 N   0  0  0  0  0  0  0  0  0  0  0  0
   19.7633   26.2290   55.1700 O   0  0  0  0  0  0  0  0  0  0  0  0
   19.0830   27.2758   53.1325 C   0  0  0  0  0  0  0  0  0  0  0  0
   16.7900   27.7215   52.5444 C   0  0  0  0  0  0  0  0  0  0  0  0
   16.0810   27.8990   50.2821 O   0  0  0  0  0  0  0  0  0  0  0  0
   18.4011   27.4489   50.8338 C   0  0  0  0  0  0  0  0  0  0  0  0
   19.3817   27.2450   51.7832 C   0  0  0  0  0  0  0  0  0  0  0  0
   19.0069   23.6821   52.7449 C   0  0  0  0  0  0  0  0  0  0  0  0
   18.0391   23.5953   51.7361 C   0  0  0  0  0  0  0  0  0  0  0  0
   16.7209   23.2263   52.0437 O   0  0  0  0  0  0  0  0  0  0  0  0
   18.3936   23.8758   50.4370 C   0  0  0  0  0  0  0  0  0  0  0  0
  1 17  1  0
 18  1  1  0
 19  2  2  0
  2 20  1  0
 20  3  2  0
  3 21  1  0
 21  4  1  0
 22  4  1  0
  4 23  1  6
 25  5  1  0
  5 26  1  0
 26  6  2  0
  6 27  1  0
 27  7  2  0
  7 28  1  0
  7 29  1  0
 28  8  1  0
 10  9  1  0
 11 10  2  0
 10 34  1  0
 11 12  1  0
 17 11  1  0
 12 13  1  0
 12 16  2  0
 13 14  1  0
 14 15  1  1
 14 23  1  0
 17 31  2  0
 18 19  1  0
 24 18  2  0
 21 22  1  1
 24 25  1  0
 26 30  1  0
 29 30  2  0
 31 32  1  0
 32 33  1  0
 32 34  2  0
M  END
$$$$
