
     RDKit          3D

 34 37  0  0  0  0  0  0  0  0999 V2000
   21.5160   25.2513   53.5344 C   0  0  0  0  0  0  0  0  0  0  0  0
   21.1018   22.7576   55.8554 C   0  0  0  0  0  0  0  0  0  0  0  0
   23.3411   21.9496   55.0601 C   0  0  0  0  0  0  0  0  0  0  0  0
   23.7207   22.2433   52.7381 C   0  0  2  0  0  0  0  0  0  0  0  0
   18.3587   27.3004   56.1466 C   0  0  0  0  0  0  0  0  0  0  0  0
   19.6969   29.2686   55.4826 C   0  0  0  0  0  0  0  0  0  0  0  0
   20.1741   31.1010   56.9386 C   0  0  0  0  0  0  0  0  0  0  0  0
   21.4214   33.0261   56.0977 C   0  0  0  0  0  0  0  0  0  0  0  0
   20.4233   24.8701   48.6804 O   0  0  0  0  0  0  0  0  0  0  0  0
   20.0398   24.9581   50.0348 C   0  0  0  0  0  0  0  0  0  0  0  0
   21.0134   25.0148   51.0500 C   0  0  0  0  0  0  0  0  0  0  0  0
   22.4081   24.9429   50.5625 C   0  0  0  0  0  0  0  0  0  0  0  0
   23.3525   24.0028   50.9538 O   0  0  0  0  0  0  0  0  0  0  0  0
   23.5848   22.7359   50.3881 C   0  0  2  0  0  0  0  0  0  0  0  0
   22.4409   22.1210   49.6697 C   0  0  0  0  0  0  0  0  0  0  0  0
   22.6555   25.8843   49.7036 O   0  0  0  0  0  0  0  0  0  0  0  0
   20.6031   25.1085   52.3367 C   0  0  0  0  0  0  0  0  0  0  0  0
   20.7423   25.0150   54.7771 C   0  0  0  0  0  0  0  0  0  0  0  0
   20.4054   23.7598   55.4012 C   0  0  0  0  0  0  0  0  0  0  0  0
   22.5167   22.4763   55.9243 C   0  0  0  0  0  0  0  0  0  0  0  0
   23.0493   21.4584   53.6846 C   0  0  2  0  0  0  0  0  0  0  0  0
   22.2371   22.1902   52.8662 O   0  0  0  0  0  0  0  0  0  0  0  0
   24.1198   21.7085   51.3898 C   0  0  0  0  0  0  0  0  0  0  0  0
   20.3415   26.1674   55.2960 N   0  0  0  0  0  0  0  0  0  0  0  0
   19.3099   26.2796   56.1757 O   0  0  0  0  0  0  0  0  0  0  0  0
   18.9667   28.5991   56.4509 C   0  0  0  0  0  0  0  0  0  0  0  0
   20.2864   30.4904   55.7214 C   0  0  0  0  0  0  0  0  0  0  0  0
   20.7803   32.3308   57.1440 O   0  0  0  0  0  0  0  0  0  0  0  0
   19.4522   30.4596   57.9260 C   0  0  0  0  0  0  0  0  0  0  0  0
   18.8612   29.2279   57.6769 C   0  0  0  0  0  0  0  0  0  0  0  0
   19.2292   25.1404   52.6125 C   0  0  0  0  0  0  0  0  0  0  0  0
   18.3030   25.0804   51.5955 C   0  0  0  0  0  0  0  0  0  0  0  0
   16.9485   25.1117   51.8770 O   0  0  0  0  0  0  0  0  0  0  0  0
   18.6861   24.9883   50.2802 C   0  0  0  0  0  0  0  0  0  0  0  0
  1 17  1  0
  1 18  1  6
 19  2  2  0
  2 20  1  0
 20  3  2  0
  3 21  1  0
 21  4  1  0
  4 22  1  6
  4 23  1  0
  5 25  1  1
  5 26  1  0
 26  6  2  0
  6 27  1  0
 27  7  2  0
  7 28  1  0
  7 29  1  0
  8 28  1  6
 10  9  1  0
 11 10  2  0
 10 34  1  0
 11 12  1  0
 17 11  1  0
 12 13  1  0
 12 16  2  0
 14 13  1  1
 15 14  1  6
 23 14  1  6
 17 31  2  0
 18 19  1  0
 24 18  2  0
 21 22  1  6
 24 25  1  0
 26 30  1  0
 29 30  2  0
 31 32  1  0
 32 33  1  0
 32 34  2  0
M  END
$$$$
