
     RDKit          3D

 34 37  0  0  0  0  0  0  0  0999 V2000
   21.4630   25.1284   53.6096 C   0  0  0  0  0  0  0  0  0  0  0  0
   21.7435   22.7173   56.0354 C   0  0  0  0  0  0  0  0  0  0  0  0
   23.9981   22.2768   55.0242 C   0  0  0  0  0  0  0  0  0  0  0  0
   24.0789   22.5186   52.6667 C   0  0  2  0  0  0  0  0  0  0  0  0
   19.3684   28.1338   55.2034 C   0  0  0  0  0  0  0  0  0  0  0  0
   17.3327   27.4625   56.4325 C   0  0  0  0  0  0  0  0  0  0  0  0
   17.2542   27.1502   58.7993 C   0  0  0  0  0  0  0  0  0  0  0  0
   15.1613   26.4731   59.8626 C   0  0  0  0  0  0  0  0  0  0  0  0
   19.9651   24.3247   48.9179 O   0  0  0  0  0  0  0  0  0  0  0  0
   19.7129   24.4101   50.3030 C   0  0  0  0  0  0  0  0  0  0  0  0
   20.7593   24.6863   51.2034 C   0  0  0  0  0  0  0  0  0  0  0  0
   22.0868   24.8365   50.5684 C   0  0  0  0  0  0  0  0  0  0  0  0
   23.2197   24.0970   50.8817 O   0  0  0  0  0  0  0  0  0  0  0  0
   23.6167   22.8643   50.3321 C   0  0  2  0  0  0  0  0  0  0  0  0
   22.5345   22.0238   49.7620 C   0  0  0  0  0  0  0  0  0  0  0  0
   22.0717   25.7636   49.6598 O   0  0  0  0  0  0  0  0  0  0  0  0
   20.4728   24.7694   52.5238 C   0  0  0  0  0  0  0  0  0  0  0  0
   20.8758   24.8212   54.9360 C   0  0  0  0  0  0  0  0  0  0  0  0
   20.8356   23.5583   55.6304 C   0  0  0  0  0  0  0  0  0  0  0  0
   23.1855   22.6923   55.9573 C   0  0  0  0  0  0  0  0  0  0  0  0
   23.6600   21.6753   53.7041 C   0  0  2  0  0  0  0  0  0  0  0  0
   22.6500   22.2125   52.9581 O   0  0  0  0  0  0  0  0  0  0  0  0
   24.4273   21.9969   51.2995 C   0  0  0  0  0  0  0  0  0  0  0  0
   20.3297   25.9094   55.4610 N   0  0  0  0  0  0  0  0  0  0  0  0
   20.1814   27.0799   54.7839 O   0  0  0  0  0  0  0  0  0  0  0  0
   18.6753   27.8029   56.4520 C   0  0  0  0  0  0  0  0  0  0  0  0
   16.6392   27.1438   57.5792 C   0  0  0  0  0  0  0  0  0  0  0  0
   16.5255   26.8242   59.9328 O   0  0  0  0  0  0  0  0  0  0  0  0
   18.5929   27.4854   58.8532 C   0  0  0  0  0  0  0  0  0  0  0  0
   19.2846   27.8053   57.6923 C   0  0  0  0  0  0  0  0  0  0  0  0
   19.1511   24.5731   52.9474 C   0  0  0  0  0  0  0  0  0  0  0  0
   18.1516   24.3019   52.0401 C   0  0  0  0  0  0  0  0  0  0  0  0
   16.8496   24.1088   52.4672 O   0  0  0  0  0  0  0  0  0  0  0  0
   18.4082   24.2143   50.6941 C   0  0  0  0  0  0  0  0  0  0  0  0
  1 17  1  0
  1 18  1  6
 19  2  2  0
  2 20  1  0
 20  3  2  0
  3 21  1  0
 21  4  1  0
  4 22  1  6
  4 23  1  0
  5 25  1  1
  5 26  1  0
 26  6  2  0
  6 27  1  0
 27  7  2  0
  7 28  1  0
  7 29  1  0
  8 28  1  6
 10  9  1  0
 11 10  2  0
 10 34  1  0
 11 12  1  0
 17 11  1  0
 12 13  1  0
 12 16  2  0
 14 13  1  1
 15 14  1  6
 23 14  1  6
 17 31  2  0
 18 19  1  0
 24 18  2  0
 21 22  1  1
 24 25  1  0
 26 30  1  0
 29 30  2  0
 31 32  1  0
 32 33  1  0
 32 34  2  0
M  END
$$$$
