
     RDKit          3D

 34 37  0  0  0  0  0  0  0  0999 V2000
   20.5772   23.6214   52.5735 C   0  0  0  0  0  0  0  0  0  0  0  0
   23.3881   24.7390   54.1940 C   0  0  0  0  0  0  0  0  0  0  0  0
   21.8478   25.1124   56.1403 C   0  0  0  0  0  0  0  0  0  0  0  0
   19.6709   25.8372   55.5420 C   0  0  2  0  0  0  0  0  0  0  0  0
   24.2482   21.0421   52.4845 C   0  0  0  0  0  0  0  0  0  0  0  0
   24.8479   23.1351   53.6530 C   0  0  0  0  0  0  0  0  0  0  0  0
   25.7727   23.2075   55.8541 C   0  0  0  0  0  0  0  0  0  0  0  0
   27.5528   23.7529   57.4362 C   0  0  0  0  0  0  0  0  0  0  0  0
   17.2446   26.5292   50.2625 O   0  0  0  0  0  0  0  0  0  0  0  0
   18.5223   25.9391   50.3558 C   0  0  0  0  0  0  0  0  0  0  0  0
   18.8549   25.1271   51.4566 C   0  0  0  0  0  0  0  0  0  0  0  0
   17.7808   24.9970   52.4653 C   0  0  0  0  0  0  0  0  0  0  0  0
   17.8958   25.3146   53.8124 O   0  0  0  0  0  0  0  0  0  0  0  0
   17.6717   26.5635   54.4198 C   0  0  2  0  0  0  0  0  0  0  0  0
   17.8241   27.7528   53.5450 C   0  0  0  0  0  0  0  0  0  0  0  0
   16.6885   24.5398   51.9334 O   0  0  0  0  0  0  0  0  0  0  0  0
   20.0887   24.5719   51.5029 C   0  0  0  0  0  0  0  0  0  0  0  0
   22.0483   23.4701   52.4670 C   0  0  0  0  0  0  0  0  0  0  0  0
   23.0806   24.3249   52.9984 C   0  0  0  0  0  0  0  0  0  0  0  0
   22.8194   24.5177   55.5031 C   0  0  0  0  0  0  0  0  0  0  0  0
   21.0021   26.2502   55.6830 C   0  0  2  0  0  0  0  0  0  0  0  0
   20.5293   26.2655   54.4018 O   0  0  0  0  0  0  0  0  0  0  0  0
   18.5160   26.7917   55.6769 C   0  0  0  0  0  0  0  0  0  0  0  0
   22.3500   22.3887   51.7617 N   0  0  0  0  0  0  0  0  0  0  0  0
   23.6179   21.9219   51.6032 O   0  0  0  0  0  0  0  0  0  0  0  0
   24.7752   21.7517   53.6539 C   0  0  0  0  0  0  0  0  0  0  0  0
   25.3352   23.8455   54.7279 C   0  0  0  0  0  0  0  0  0  0  0  0
   26.2570   23.9543   56.9172 O   0  0  0  0  0  0  0  0  0  0  0  0
   25.7136   21.8281   55.8871 C   0  0  0  0  0  0  0  0  0  0  0  0
   25.2210   21.1196   54.7991 C   0  0  0  0  0  0  0  0  0  0  0  0
   20.9899   24.8279   50.4603 C   0  0  0  0  0  0  0  0  0  0  0  0
   20.6331   25.6292   49.3990 C   0  0  0  0  0  0  0  0  0  0  0  0
   21.5295   25.8771   48.3744 O   0  0  0  0  0  0  0  0  0  0  0  0
   19.3890   26.2046   49.3204 C   0  0  0  0  0  0  0  0  0  0  0  0
  1 17  1  0
  1 18  1  6
 19  2  2  0
  2 20  1  0
 20  3  2  0
  3 21  1  0
 21  4  1  0
  4 22  1  6
  4 23  1  0
  5 25  1  1
  5 26  1  0
 26  6  2  0
  6 27  1  0
 27  7  2  0
  7 28  1  0
  7 29  1  0
  8 28  1  6
 10  9  1  0
 11 10  2  0
 10 34  1  0
 11 12  1  0
 17 11  1  0
 12 13  1  0
 12 16  2  0
 14 13  1  6
 15 14  1  6
 23 14  1  6
 17 31  2  0
 18 19  1  0
 24 18  2  0
 21 22  1  6
 24 25  1  0
 26 30  1  0
 29 30  2  0
 31 32  1  0
 32 33  1  0
 32 34  2  0
M  END
$$$$
