
     RDKit          3D

 34 37  0  0  0  0  0  0  0  0999 V2000
   20.6300   24.3482   53.0566 C   0  0  0  0  0  0  0  0  0  0  0  0
   21.3822   26.9151   55.2065 C   0  0  0  0  0  0  0  0  0  0  0  0
   19.0457   26.5870   56.0628 C   0  0  0  0  0  0  0  0  0  0  0  0
   17.4646   26.0002   54.3961 C   0  0  2  0  0  0  0  0  0  0  0  0
   23.8837   22.0577   52.8692 C   0  0  0  0  0  0  0  0  0  0  0  0
   26.0030   22.9416   53.7817 C   0  0  0  0  0  0  0  0  0  0  0  0
   26.8673   22.3595   55.9310 C   0  0  0  0  0  0  0  0  0  0  0  0
   29.1585   22.9309   56.5581 C   0  0  0  0  0  0  0  0  0  0  0  0
   18.2300   24.8493   48.7103 O   0  0  0  0  0  0  0  0  0  0  0  0
   19.3635   25.0321   49.5295 C   0  0  0  0  0  0  0  0  0  0  0  0
   19.3469   24.6164   50.8744 C   0  0  0  0  0  0  0  0  0  0  0  0
   18.0635   24.0273   51.3150 C   0  0  0  0  0  0  0  0  0  0  0  0
   17.2952   24.4729   52.3826 O   0  0  0  0  0  0  0  0  0  0  0  0
   16.2960   25.4631   52.3640 C   0  0  2  0  0  0  0  0  0  0  0  0
   16.3964   26.4730   51.2811 C   0  0  0  0  0  0  0  0  0  0  0  0
   17.7280   23.0190   50.5695 O   0  0  0  0  0  0  0  0  0  0  0  0
   20.4591   24.8016   51.6236 C   0  0  0  0  0  0  0  0  0  0  0  0
   21.8358   24.9867   53.6370 C   0  0  0  0  0  0  0  0  0  0  0  0
   21.9659   26.2995   54.2187 C   0  0  0  0  0  0  0  0  0  0  0  0
   20.3477   26.5414   56.1426 C   0  0  0  0  0  0  0  0  0  0  0  0
   18.2049   27.0633   54.9293 C   0  0  2  0  0  0  0  0  0  0  0  0
   18.5383   26.7162   53.6512 O   0  0  0  0  0  0  0  0  0  0  0  0
   16.1512   26.2098   53.6932 C   0  0  0  0  0  0  0  0  0  0  0  0
   22.8770   24.1707   53.5478 N   0  0  0  0  0  0  0  0  0  0  0  0
   22.7862   22.8743   53.1458 O   0  0  0  0  0  0  0  0  0  0  0  0
   24.8853   22.1380   53.9365 C   0  0  0  0  0  0  0  0  0  0  0  0
   26.9706   23.0494   54.7562 C   0  0  0  0  0  0  0  0  0  0  0  0
   27.8599   22.4917   56.8899 O   0  0  0  0  0  0  0  0  0  0  0  0
   25.7645   21.5491   56.1168 C   0  0  0  0  0  0  0  0  0  0  0  0
   24.7937   21.4461   55.1292 C   0  0  0  0  0  0  0  0  0  0  0  0
   21.5818   25.4029   51.0384 C   0  0  0  0  0  0  0  0  0  0  0  0
   21.5636   25.8003   49.7202 C   0  0  0  0  0  0  0  0  0  0  0  0
   22.6765   26.3939   49.1508 O   0  0  0  0  0  0  0  0  0  0  0  0
   20.4530   25.6239   48.9325 C   0  0  0  0  0  0  0  0  0  0  0  0
  1 17  1  0
  1 18  1  6
 19  2  2  0
  2 20  1  0
 20  3  2  0
  3 21  1  0
 21  4  1  0
  4 22  1  6
  4 23  1  0
  5 25  1  1
  5 26  1  0
 26  6  2  0
  6 27  1  0
 27  7  2  0
  7 28  1  0
  7 29  1  0
  8 28  1  6
 10  9  1  0
 11 10  2  0
 10 34  1  0
 11 12  1  0
 17 11  1  0
 12 13  1  0
 12 16  2  0
 14 13  1  1
 15 14  1  6
 23 14  1  6
 17 31  2  0
 18 19  1  0
 24 18  2  0
 21 22  1  6
 24 25  1  0
 26 30  1  0
 29 30  2  0
 31 32  1  0
 32 33  1  0
 32 34  2  0
M  END
$$$$
