
     RDKit          3D

 34 37  0  0  0  0  0  0  0  0999 V2000
   20.8279   24.8459   53.0213 C   0  0  0  0  0  0  0  0  0  0  0  0
   21.3022   24.4584   56.3446 C   0  0  0  0  0  0  0  0  0  0  0  0
   23.7440   24.0517   55.8191 C   0  0  0  0  0  0  0  0  0  0  0  0
   23.5272   22.9677   53.7010 C   0  0  2  0  0  0  0  0  0  0  0  0
   18.7460   28.0600   55.6780 C   0  0  0  0  0  0  0  0  0  0  0  0
   20.7163   28.2164   57.2413 C   0  0  0  0  0  0  0  0  0  0  0  0
   20.7291   26.9916   59.3196 C   0  0  0  0  0  0  0  0  0  0  0  0
   20.8169   25.9130   61.5245 C   0  0  0  0  0  0  0  0  0  0  0  0
   20.5068   24.8022   48.1204 O   0  0  0  0  0  0  0  0  0  0  0  0
   19.9504   24.9402   49.3970 C   0  0  0  0  0  0  0  0  0  0  0  0
   20.6706   24.8335   50.5558 C   0  0  0  0  0  0  0  0  0  0  0  0
   22.1275   24.5545   50.4633 C   0  0  0  0  0  0  0  0  0  0  0  0
   22.8319   23.7434   51.2763 O   0  0  0  0  0  0  0  0  0  0  0  0
   23.1707   22.4207   51.3582 C   0  0  2  0  0  0  0  0  0  0  0  0
   22.0171   21.4456   51.2939 C   0  0  0  0  0  0  0  0  0  0  0  0
   22.6421   25.2236   49.4615 O   0  0  0  0  0  0  0  0  0  0  0  0
   20.0195   24.9892   51.7851 C   0  0  0  0  0  0  0  0  0  0  0  0
   20.2033   25.3397   54.2507 C   0  0  0  0  0  0  0  0  0  0  0  0
   20.2786   24.7031   55.5612 C   0  0  0  0  0  0  0  0  0  0  0  0
   22.6991   24.6807   56.2894 C   0  0  0  0  0  0  0  0  0  0  0  0
   23.7594   22.7256   55.1027 C   0  0  2  0  0  0  0  0  0  0  0  0
   22.5547   22.3716   54.5173 O   0  0  0  0  0  0  0  0  0  0  0  0
   24.0196   22.0841   52.6213 C   0  0  0  0  0  0  0  0  0  0  0  0
   19.5478   26.4513   54.0800 N   0  0  0  0  0  0  0  0  0  0  0  0
   18.5447   26.9175   54.8712 O   0  0  0  0  0  0  0  0  0  0  0  0
   19.4689   27.7189   56.9239 C   0  0  0  0  0  0  0  0  0  0  0  0
   21.3413   27.8533   58.4334 C   0  0  0  0  0  0  0  0  0  0  0  0
   21.3902   26.6613   60.4899 O   0  0  0  0  0  0  0  0  0  0  0  0
   19.4847   26.4995   58.9956 C   0  0  0  0  0  0  0  0  0  0  0  0
   18.8617   26.8559   57.8168 C   0  0  0  0  0  0  0  0  0  0  0  0
   18.6828   25.2429   51.8097 C   0  0  0  0  0  0  0  0  0  0  0  0
   17.9409   25.3531   50.6268 C   0  0  0  0  0  0  0  0  0  0  0  0
   16.5633   25.6155   50.6720 O   0  0  0  0  0  0  0  0  0  0  0  0
   18.5767   25.2013   49.4166 C   0  0  0  0  0  0  0  0  0  0  0  0
  1 17  1  0
 18  1  1  0
 19  2  2  0
  2 20  1  0
 20  3  2  0
  3 21  1  0
 21  4  1  0
 22  4  1  0
  4 23  1  6
 25  5  1  0
  5 26  1  0
 26  6  2  0
  6 27  1  0
 27  7  2  0
  7 28  1  0
  7 29  1  0
 28  8  1  0
 10  9  1  0
 11 10  2  0
 10 34  1  0
 11 12  1  0
 17 11  1  0
 12 13  1  0
 12 16  2  0
 13 14  1  0
 14 15  1  1
 14 23  1  0
 17 31  2  0
 18 19  1  0
 24 18  2  0
 21 22  1  1
 24 25  1  0
 26 30  1  0
 29 30  2  0
 31 32  1  0
 32 33  1  0
 32 34  2  0
M  END
$$$$
