
     RDKit          3D

 34 37  0  0  0  0  0  0  0  0999 V2000
   21.2214   23.2429   52.8162 C   0  0  0  0  0  0  0  0  0  0  0  0
   24.2043   22.1784   51.4949 C   0  0  0  0  0  0  0  0  0  0  0  0
   25.1330   22.6622   53.7760 C   0  0  0  0  0  0  0  0  0  0  0  0
   24.1748   24.5499   54.8440 C   0  0  2  0  0  0  0  0  0  0  0  0
   18.3476   22.0934   51.5276 C   0  0  0  0  0  0  0  0  0  0  0  0
   17.4994   22.7996   53.7383 C   0  0  0  0  0  0  0  0  0  0  0  0
   17.2044   25.0816   54.3791 C   0  0  0  0  0  0  0  0  0  0  0  0
   16.6987   27.3806   55.0336 C   0  0  0  0  0  0  0  0  0  0  0  0
   19.7636   28.0034   53.1548 O   0  0  0  0  0  0  0  0  0  0  0  0
   20.0510   26.8447   52.4037 C   0  0  0  0  0  0  0  0  0  0  0  0
   20.5247   25.6813   53.0393 C   0  0  0  0  0  0  0  0  0  0  0  0
   20.7073   25.8160   54.5010 C   0  0  0  0  0  0  0  0  0  0  0  0
   21.8911   25.5889   55.1909 O   0  0  0  0  0  0  0  0  0  0  0  0
   22.9215   26.5109   55.4498 C   0  0  2  0  0  0  0  0  0  0  0  0
   23.0271   27.6545   54.5097 C   0  0  0  0  0  0  0  0  0  0  0  0
   19.6049   26.1807   55.0814 O   0  0  0  0  0  0  0  0  0  0  0  0
   20.7792   24.5877   52.2830 C   0  0  0  0  0  0  0  0  0  0  0  0
   21.6942   22.3969   51.6941 C   0  0  0  0  0  0  0  0  0  0  0  0
   22.9916   22.3804   51.0656 C   0  0  0  0  0  0  0  0  0  0  0  0
   24.7670   21.8859   52.7925 C   0  0  0  0  0  0  0  0  0  0  0  0
   25.0774   24.1488   53.8505 C   0  0  2  0  0  0  0  0  0  0  0  0
   23.9720   24.8053   53.3901 O   0  0  0  0  0  0  0  0  0  0  0  0
   24.3052   25.8646   55.5634 C   0  0  0  0  0  0  0  0  0  0  0  0
   20.7207   21.5992   51.2770 N   0  0  0  0  0  0  0  0  0  0  0  0
   19.5297   21.4637   51.9202 O   0  0  0  0  0  0  0  0  0  0  0  0
   17.9649   23.1408   52.4790 C   0  0  0  0  0  0  0  0  0  0  0  0
   17.1281   23.7479   54.6659 C   0  0  0  0  0  0  0  0  0  0  0  0
   16.8224   26.0087   55.3366 O   0  0  0  0  0  0  0  0  0  0  0  0
   17.6646   25.4554   53.1318 C   0  0  0  0  0  0  0  0  0  0  0  0
   18.0369   24.4929   52.2026 C   0  0  0  0  0  0  0  0  0  0  0  0
   20.5682   24.6531   50.8988 C   0  0  0  0  0  0  0  0  0  0  0  0
   20.1064   25.8082   50.3086 C   0  0  0  0  0  0  0  0  0  0  0  0
   19.9016   25.8640   48.9412 O   0  0  0  0  0  0  0  0  0  0  0  0
   19.8356   26.9333   51.0475 C   0  0  0  0  0  0  0  0  0  0  0  0
  1 17  1  0
  1 18  1  6
 19  2  2  0
  2 20  1  0
 20  3  2  0
  3 21  1  0
 21  4  1  0
  4 22  1  6
  4 23  1  0
  5 25  1  1
  5 26  1  0
 26  6  2  0
  6 27  1  0
 27  7  2  0
  7 28  1  0
  7 29  1  0
  8 28  1  6
 10  9  1  0
 11 10  2  0
 10 34  1  0
 11 12  1  0
 17 11  1  0
 12 13  1  0
 12 16  2  0
 14 13  1  6
 15 14  1  6
 23 14  1  6
 17 31  2  0
 18 19  1  0
 24 18  2  0
 21 22  1  6
 24 25  1  0
 26 30  1  0
 29 30  2  0
 31 32  1  0
 32 33  1  0
 32 34  2  0
M  END
$$$$
