
     RDKit          3D

 30 35  0  0  0  0  0  0  0  0999 V2000
    8.2709   61.8083   -5.0199 C   0  0  0  0  0  0  0  0  0  0  0  0
    8.7843   60.7860   -4.2230 C   0  0  0  0  0  0  0  0  0  0  0  0
    7.9911   59.7336   -3.8183 C   0  0  0  0  0  0  0  0  0  0  0  0
    6.6551   59.6457   -4.1837 C   0  0  0  0  0  0  0  0  0  0  0  0
    6.1291   60.6408   -4.9676 C   0  0  0  0  0  0  0  0  0  0  0  0
    6.9255   61.6894   -5.3690 C   0  0  0  0  0  0  0  0  0  0  0  0
    4.7210   60.5458   -5.3513 C   0  0  0  0  0  0  0  0  0  0  0  0
    9.0816   62.9165   -5.4538 C   0  0  0  0  0  0  0  0  0  0  0  0
    9.7404   63.8053   -4.6496 C   0  0  0  0  0  0  0  0  0  0  0  0
   10.3713   64.6723   -5.4458 N   0  0  0  0  0  0  0  0  0  0  0  0
   10.1358   64.3647   -6.7110 O   0  0  0  0  0  0  0  0  0  0  0  0
    9.3527   63.2988   -6.7422 C   0  0  0  0  0  0  0  0  0  0  0  0
    8.8508   62.6277   -7.9621 C   0  0  0  0  0  0  0  0  0  0  0  0
    9.7576   63.8137   -3.1713 C   0  0  0  0  0  0  0  0  0  0  0  0
    8.2407   58.6365   -3.0579 N   0  0  0  0  0  0  0  0  0  0  0  0
    7.1032   57.9246   -2.9731 C   0  0  0  0  0  0  0  0  0  0  0  0
    6.1165   58.5283   -3.6585 N   0  0  0  0  0  0  0  0  0  0  0  0
    6.9497   56.6591   -2.2348 C   0  0  2  0  0  0  0  0  0  0  0  0
    7.5108   56.5915   -0.8064 C   0  0  0  0  0  0  0  0  0  0  0  0
    8.1862   55.8474   -1.9055 C   0  0  0  0  0  0  0  0  0  0  0  0
    4.4087   59.9912   -6.5806 C   0  0  0  0  0  0  0  0  0  0  0  0
    3.0602   59.9190   -6.9080 C   0  0  0  0  0  0  0  0  0  0  0  0
    2.0828   60.3747   -6.0558 C   0  0  0  0  0  0  0  0  0  0  0  0
    2.4377   60.9190   -4.8432 C   0  0  0  0  0  0  0  0  0  0  0  0
    3.7683   61.0124   -4.4727 C   0  0  0  0  0  0  0  0  0  0  0  0
    5.3801   59.5323   -7.4402 C   0  0  0  0  0  0  0  0  0  0  0  0
    4.9996   58.9912   -8.6492 C   0  0  0  0  0  0  0  0  0  0  0  0
    3.6522   58.9368   -8.9384 C   0  0  0  0  0  0  0  0  0  0  0  0
    2.7184   59.3865   -8.0935 N   0  0  0  0  0  0  0  0  0  0  0  0
    4.1576   61.5976   -3.1681 C   0  0  0  0  0  0  0  0  0  0  0  0
  1  2  2  0
  1  6  1  0
  1  8  1  0
  2  3  1  0
  3  4  2  0
  3 15  1  0
  4  5  1  0
  4 17  1  0
  5  6  2  0
  5  7  1  0
  7 21  2  0
  7 25  1  0
  8  9  1  0
  8 12  2  0
  9 10  2  0
 14  9  1  1
 10 11  1  0
 11 12  1  0
 13 12  1  1
 15 16  1  0
 16 17  2  0
 18 16  1  6
 19 18  1  1
 18 20  1  0
 20 19  1  6
 21 22  1  0
 21 26  1  0
 22 23  2  0
 22 29  1  0
 23 24  1  0
 24 25  2  0
 30 25  1  1
 26 27  2  0
 27 28  1  0
 28 29  2  0
M  END
$$$$
