
     RDKit          3D

 30 35  0  0  0  0  0  0  0  0999 V2000
    8.3464   61.7075   -4.9063 C   0  0  0  0  0  0  0  0  0  0  0  0
    8.8637   60.7842   -3.9987 C   0  0  0  0  0  0  0  0  0  0  0  0
    8.1229   59.6949   -3.5926 C   0  0  0  0  0  0  0  0  0  0  0  0
    6.8378   59.4704   -4.0659 C   0  0  0  0  0  0  0  0  0  0  0  0
    6.3089   60.3662   -4.9598 C   0  0  0  0  0  0  0  0  0  0  0  0
    7.0529   61.4524   -5.3621 C   0  0  0  0  0  0  0  0  0  0  0  0
    4.9544   60.1274   -5.4571 C   0  0  0  0  0  0  0  0  0  0  0  0
    9.1028   62.8520   -5.3438 C   0  0  0  0  0  0  0  0  0  0  0  0
    8.7855   63.6885   -6.3784 C   0  0  0  0  0  0  0  0  0  0  0  0
    9.7435   64.6163   -6.4499 N   0  0  0  0  0  0  0  0  0  0  0  0
   10.6447   64.3965   -5.5062 O   0  0  0  0  0  0  0  0  0  0  0  0
   10.2769   63.3274   -4.8192 C   0  0  0  0  0  0  0  0  0  0  0  0
   11.0078   62.7393   -3.6745 C   0  0  0  0  0  0  0  0  0  0  0  0
    7.6032   63.5923   -7.2608 C   0  0  0  0  0  0  0  0  0  0  0  0
    8.3878   58.6724   -2.7390 N   0  0  0  0  0  0  0  0  0  0  0  0
    7.3078   57.8723   -2.7044 C   0  0  0  0  0  0  0  0  0  0  0  0
    6.3437   58.3456   -3.5133 N   0  0  0  0  0  0  0  0  0  0  0  0
    7.1880   56.6465   -1.8962 C   0  0  2  0  0  0  0  0  0  0  0  0
    7.6709   56.7002   -0.4390 C   0  0  0  0  0  0  0  0  0  0  0  0
    8.4498   55.9348   -1.4516 C   0  0  0  0  0  0  0  0  0  0  0  0
    4.8025   59.5888   -6.7232 C   0  0  0  0  0  0  0  0  0  0  0  0
    3.5001   59.3772   -7.1590 C   0  0  0  0  0  0  0  0  0  0  0  0
    2.4147   59.6862   -6.3743 C   0  0  0  0  0  0  0  0  0  0  0  0
    2.6114   60.2200   -5.1217 C   0  0  0  0  0  0  0  0  0  0  0  0
    3.8902   60.4490   -4.6438 C   0  0  0  0  0  0  0  0  0  0  0  0
    5.8828   59.2763   -7.5159 C   0  0  0  0  0  0  0  0  0  0  0  0
    5.6602   58.7427   -8.7669 C   0  0  0  0  0  0  0  0  0  0  0  0
    4.3540   58.5473   -9.1640 C   0  0  0  0  0  0  0  0  0  0  0  0
    3.3131   58.8555   -8.3833 N   0  0  0  0  0  0  0  0  0  0  0  0
    4.1091   61.0237   -3.2955 C   0  0  0  0  0  0  0  0  0  0  0  0
  1  2  2  0
  1  6  1  0
  1  8  1  0
  2  3  1  0
  3  4  2  0
  3 15  1  0
  4  5  1  0
  4 17  1  0
  5  6  2  0
  5  7  1  0
  7 21  2  0
  7 25  1  0
  8  9  1  0
  8 12  2  0
  9 10  2  0
 14  9  1  1
 10 11  1  0
 11 12  1  0
 13 12  1  1
 15 16  1  0
 16 17  2  0
 18 16  1  6
 19 18  1  1
 18 20  1  0
 20 19  1  6
 21 22  1  0
 21 26  1  0
 22 23  2  0
 22 29  1  0
 23 24  1  0
 24 25  2  0
 30 25  1  1
 26 27  2  0
 27 28  1  0
 28 29  2  0
M  END
$$$$
