
     RDKit          3D

 30 35  0  0  0  0  0  0  0  0999 V2000
    8.5648   61.5223   -4.9087 C   0  0  0  0  0  0  0  0  0  0  0  0
    9.0570   60.5811   -4.0057 C   0  0  0  0  0  0  0  0  0  0  0  0
    8.2620   59.5528   -3.5466 C   0  0  0  0  0  0  0  0  0  0  0  0
    6.9449   59.4097   -3.9602 C   0  0  0  0  0  0  0  0  0  0  0  0
    6.4399   60.3246   -4.8485 C   0  0  0  0  0  0  0  0  0  0  0  0
    7.2381   61.3496   -5.3038 C   0  0  0  0  0  0  0  0  0  0  0  0
    5.0517   60.1717   -5.2828 C   0  0  0  0  0  0  0  0  0  0  0  0
    9.3778   62.6041   -5.4010 C   0  0  0  0  0  0  0  0  0  0  0  0
   10.0795   63.5023   -4.6450 C   0  0  0  0  0  0  0  0  0  0  0  0
   10.6959   64.3366   -5.4862 N   0  0  0  0  0  0  0  0  0  0  0  0
   10.4104   63.9995   -6.7335 O   0  0  0  0  0  0  0  0  0  0  0  0
    9.6091   62.9471   -6.7081 C   0  0  0  0  0  0  0  0  0  0  0  0
    9.0529   62.2528   -7.8908 C   0  0  0  0  0  0  0  0  0  0  0  0
   10.1496   63.5498   -3.1690 C   0  0  0  0  0  0  0  0  0  0  0  0
    8.4934   58.5291   -2.6847 N   0  0  0  0  0  0  0  0  0  0  0  0
    7.3637   57.8064   -2.5881 C   0  0  0  0  0  0  0  0  0  0  0  0
    6.3998   58.3314   -3.3646 N   0  0  0  0  0  0  0  0  0  0  0  0
    7.1959   56.6058   -1.7511 C   0  0  2  0  0  0  0  0  0  0  0  0
    7.7089   56.6647   -0.3044 C   0  0  0  0  0  0  0  0  0  0  0  0
    8.4273   55.8385   -1.3139 C   0  0  0  0  0  0  0  0  0  0  0  0
    4.0452   60.6128   -4.4409 C   0  0  0  0  0  0  0  0  0  0  0  0
    2.7403   60.4497   -4.8897 C   0  0  0  0  0  0  0  0  0  0  0  0
    2.4597   59.8791   -6.1083 C   0  0  0  0  0  0  0  0  0  0  0  0
    3.4909   59.4544   -6.9138 C   0  0  0  0  0  0  0  0  0  0  0  0
    4.8075   59.5956   -6.5099 C   0  0  0  0  0  0  0  0  0  0  0  0
    4.3164   61.1851   -3.2194 C   0  0  0  0  0  0  0  0  0  0  0  0
    3.2664   61.6026   -2.4305 C   0  0  0  0  0  0  0  0  0  0  0  0
    1.9857   61.4239   -2.9100 C   0  0  0  0  0  0  0  0  0  0  0  0
    1.7363   60.8661   -4.0994 N   0  0  0  0  0  0  0  0  0  0  0  0
    5.9230   59.1404   -7.3726 C   0  0  0  0  0  0  0  0  0  0  0  0
  1  2  2  0
  1  6  1  0
  1  8  1  0
  2  3  1  0
  3  4  2  0
  3 15  1  0
  4  5  1  0
  4 17  1  0
  5  6  2  0
  5  7  1  0
  7 21  2  0
  7 25  1  0
  8  9  1  0
  8 12  2  0
  9 10  2  0
 14  9  1  1
 10 11  1  0
 11 12  1  0
 13 12  1  1
 15 16  1  0
 16 17  2  0
 18 16  1  6
 19 18  1  1
 18 20  1  0
 20 19  1  6
 21 22  1  0
 21 26  1  0
 22 23  2  0
 22 29  1  0
 23 24  1  0
 24 25  2  0
 30 25  1  1
 26 27  2  0
 27 28  1  0
 28 29  2  0
M  END
$$$$
