
     RDKit          3D

 30 35  0  0  0  0  0  0  0  0999 V2000
    8.4289   61.4590   -4.7358 C   0  0  0  0  0  0  0  0  0  0  0  0
    8.9556   60.3446   -4.0845 C   0  0  0  0  0  0  0  0  0  0  0  0
    8.1531   59.2788   -3.7375 C   0  0  0  0  0  0  0  0  0  0  0  0
    6.7942   59.2679   -4.0192 C   0  0  0  0  0  0  0  0  0  0  0  0
    6.2547   60.3542   -4.6596 C   0  0  0  0  0  0  0  0  0  0  0  0
    7.0605   61.4159   -5.0039 C   0  0  0  0  0  0  0  0  0  0  0  0
    4.8225   60.3403   -4.9553 C   0  0  0  0  0  0  0  0  0  0  0  0
    9.2489   62.5830   -5.1072 C   0  0  0  0  0  0  0  0  0  0  0  0
    9.8239   62.8007   -6.3289 C   0  0  0  0  0  0  0  0  0  0  0  0
   10.4982   63.9510   -6.2534 N   0  0  0  0  0  0  0  0  0  0  0  0
   10.3699   64.4612   -5.0392 O   0  0  0  0  0  0  0  0  0  0  0  0
    9.6134   63.6464   -4.3223 C   0  0  0  0  0  0  0  0  0  0  0  0
    9.2232   63.8455   -2.9087 C   0  0  0  0  0  0  0  0  0  0  0  0
    9.7239   61.9301   -7.5196 C   0  0  0  0  0  0  0  0  0  0  0  0
    8.4119   58.1012   -3.1123 N   0  0  0  0  0  0  0  0  0  0  0  0
    7.2576   57.4172   -3.0247 C   0  0  0  0  0  0  0  0  0  0  0  0
    6.2511   58.1174   -3.5765 N   0  0  0  0  0  0  0  0  0  0  0  0
    7.1069   56.0863   -2.4116 C   0  0  2  0  0  0  0  0  0  0  0  0
    7.6885   55.8762   -1.0054 C   0  0  0  0  0  0  0  0  0  0  0  0
    8.3429   55.2401   -2.1822 C   0  0  0  0  0  0  0  0  0  0  0  0
    4.4203   60.0889   -6.2558 C   0  0  0  0  0  0  0  0  0  0  0  0
    3.0517   60.0843   -6.4958 C   0  0  0  0  0  0  0  0  0  0  0  0
    2.1401   60.3174   -5.4939 C   0  0  0  0  0  0  0  0  0  0  0  0
    2.5835   60.5631   -4.2149 C   0  0  0  0  0  0  0  0  0  0  0  0
    3.9375   60.5779   -3.9269 C   0  0  0  0  0  0  0  0  0  0  0  0
    5.3254   59.8544   -7.2653 C   0  0  0  0  0  0  0  0  0  0  0  0
    4.8567   59.6108   -8.5382 C   0  0  0  0  0  0  0  0  0  0  0  0
    3.4920   59.6145   -8.7370 C   0  0  0  0  0  0  0  0  0  0  0  0
    2.6233   59.8439   -7.7467 N   0  0  0  0  0  0  0  0  0  0  0  0
    4.4219   60.8419   -2.5516 C   0  0  0  0  0  0  0  0  0  0  0  0
  1  2  2  0
  1  6  1  0
  1  8  1  0
  2  3  1  0
  3  4  2  0
  3 15  1  0
  4  5  1  0
  4 17  1  0
  5  6  2  0
  5  7  1  0
  7 21  2  0
  7 25  1  0
  8  9  1  0
  8 12  2  0
  9 10  2  0
 14  9  1  1
 10 11  1  0
 11 12  1  0
 13 12  1  1
 15 16  1  0
 16 17  2  0
 18 16  1  6
 19 18  1  1
 18 20  1  0
 20 19  1  6
 21 22  1  0
 21 26  1  0
 22 23  2  0
 22 29  1  0
 23 24  1  0
 24 25  2  0
 30 25  1  1
 26 27  2  0
 27 28  1  0
 28 29  2  0
M  END
$$$$
