
     RDKit          3D

 30 35  0  0  0  0  0  0  0  0999 V2000
    8.1413   61.6202   -5.0522 C   0  0  0  0  0  0  0  0  0  0  0  0
    6.9328   62.2757   -4.8210 C   0  0  0  0  0  0  0  0  0  0  0  0
    5.8423   61.5995   -4.3173 C   0  0  0  0  0  0  0  0  0  0  0  0
    5.8986   60.2451   -4.0199 C   0  0  0  0  0  0  0  0  0  0  0  0
    7.0778   59.5801   -4.2396 C   0  0  0  0  0  0  0  0  0  0  0  0
    8.1639   60.2601   -4.7428 C   0  0  0  0  0  0  0  0  0  0  0  0
    7.1346   58.1528   -3.9255 C   0  0  0  0  0  0  0  0  0  0  0  0
    9.2927   62.3072   -5.5777 C   0  0  0  0  0  0  0  0  0  0  0  0
   10.3749   62.7427   -4.8637 C   0  0  0  0  0  0  0  0  0  0  0  0
   11.2127   63.3260   -5.7248 N   0  0  0  0  0  0  0  0  0  0  0  0
   10.7020   63.2741   -6.9444 O   0  0  0  0  0  0  0  0  0  0  0  0
    9.5328   62.6583   -6.8810 C   0  0  0  0  0  0  0  0  0  0  0  0
    8.6312   62.3909   -8.0238 C   0  0  0  0  0  0  0  0  0  0  0  0
   10.5879   62.5995   -3.4077 C   0  0  0  0  0  0  0  0  0  0  0  0
    4.5803   61.9950   -4.0086 N   0  0  0  0  0  0  0  0  0  0  0  0
    3.9123   60.9233   -3.5470 C   0  0  0  0  0  0  0  0  0  0  0  0
    4.7052   59.8374   -3.5461 N   0  0  0  0  0  0  0  0  0  0  0  0
    2.5080   60.9282   -3.1021 C   0  0  2  0  0  0  0  0  0  0  0  0
    1.6584   62.1656   -3.4287 C   0  0  0  0  0  0  0  0  0  0  0  0
    2.0831   61.9059   -2.0252 C   0  0  0  0  0  0  0  0  0  0  0  0
    6.3711   57.2805   -4.6821 C   0  0  0  0  0  0  0  0  0  0  0  0
    6.4526   55.9331   -4.3523 C   0  0  0  0  0  0  0  0  0  0  0  0
    7.2506   55.4857   -3.3265 C   0  0  0  0  0  0  0  0  0  0  0  0
    7.9931   56.3875   -2.5999 C   0  0  0  0  0  0  0  0  0  0  0  0
    7.9450   57.7401   -2.8910 C   0  0  0  0  0  0  0  0  0  0  0  0
    5.5694   57.7190   -5.7107 C   0  0  0  0  0  0  0  0  0  0  0  0
    4.8350   56.7963   -6.4240 C   0  0  0  0  0  0  0  0  0  0  0  0
    4.9421   55.4685   -6.0671 C   0  0  0  0  0  0  0  0  0  0  0  0
    5.7254   55.0560   -5.0649 N   0  0  0  0  0  0  0  0  0  0  0  0
    8.7422   58.7168   -2.1124 C   0  0  0  0  0  0  0  0  0  0  0  0
  1  2  2  0
  1  6  1  0
  1  8  1  0
  2  3  1  0
  3  4  2  0
  3 15  1  0
  4  5  1  0
  4 17  1  0
  5  6  2  0
  5  7  1  0
  7 21  2  0
  7 25  1  0
  8  9  1  0
  8 12  2  0
  9 10  2  0
 14  9  1  1
 10 11  1  0
 11 12  1  0
 13 12  1  1
 15 16  1  0
 16 17  2  0
 18 16  1  6
 19 18  1  1
 18 20  1  0
 20 19  1  6
 21 22  1  0
 21 26  1  0
 22 23  2  0
 22 29  1  0
 23 24  1  0
 24 25  2  0
 30 25  1  1
 26 27  2  0
 27 28  1  0
 28 29  2  0
M  END
$$$$
