
     RDKit          3D

 30 35  0  0  0  0  0  0  0  0999 V2000
    8.5828   61.6472   -4.9714 C   0  0  0  0  0  0  0  0  0  0  0  0
    9.1437   60.6241   -4.2083 C   0  0  0  0  0  0  0  0  0  0  0  0
    8.3889   59.5444   -3.8021 C   0  0  0  0  0  0  0  0  0  0  0  0
    7.0460   59.4287   -4.1327 C   0  0  0  0  0  0  0  0  0  0  0  0
    6.4734   60.4240   -4.8830 C   0  0  0  0  0  0  0  0  0  0  0  0
    7.2317   61.5000   -5.2860 C   0  0  0  0  0  0  0  0  0  0  0  0
    5.0581   60.2997   -5.2299 C   0  0  0  0  0  0  0  0  0  0  0  0
    9.3528   62.7836   -5.4062 C   0  0  0  0  0  0  0  0  0  0  0  0
   10.0513   63.6458   -4.6065 C   0  0  0  0  0  0  0  0  0  0  0  0
   10.6217   64.5545   -5.4018 N   0  0  0  0  0  0  0  0  0  0  0  0
   10.3106   64.2983   -6.6622 O   0  0  0  0  0  0  0  0  0  0  0  0
    9.5384   63.2244   -6.6911 C   0  0  0  0  0  0  0  0  0  0  0  0
    8.9680   62.5997   -7.9055 C   0  0  0  0  0  0  0  0  0  0  0  0
   10.1612   63.5910   -3.1332 C   0  0  0  0  0  0  0  0  0  0  0  0
    8.6871   58.4404   -3.0697 N   0  0  0  0  0  0  0  0  0  0  0  0
    7.5708   57.6980   -2.9675 C   0  0  0  0  0  0  0  0  0  0  0  0
    6.5506   58.2883   -3.6143 N   0  0  0  0  0  0  0  0  0  0  0  0
    7.4699   56.4157   -2.2494 C   0  0  2  0  0  0  0  0  0  0  0  0
    7.3804   56.4592   -0.7165 C   0  0  0  0  0  0  0  0  0  0  0  0
    8.6247   55.9723   -1.3742 C   0  0  0  0  0  0  0  0  0  0  0  0
    4.7255   59.7371   -6.4502 C   0  0  0  0  0  0  0  0  0  0  0  0
    3.3707   59.6369   -6.7425 C   0  0  0  0  0  0  0  0  0  0  0  0
    2.4066   60.0737   -5.8657 C   0  0  0  0  0  0  0  0  0  0  0  0
    2.7816   60.6269   -4.6632 C   0  0  0  0  0  0  0  0  0  0  0  0
    4.1191   60.7480   -4.3273 C   0  0  0  0  0  0  0  0  0  0  0  0
    5.6835   59.2970   -7.3343 C   0  0  0  0  0  0  0  0  0  0  0  0
    5.2829   58.7465   -8.5326 C   0  0  0  0  0  0  0  0  0  0  0  0
    3.9299   58.6641   -8.7867 C   0  0  0  0  0  0  0  0  0  0  0  0
    3.0093   59.0958   -7.9183 N   0  0  0  0  0  0  0  0  0  0  0  0
    4.5300   61.3428   -3.0338 C   0  0  0  0  0  0  0  0  0  0  0  0
  1  2  2  0
  1  6  1  0
  1  8  1  0
  2  3  1  0
  3  4  2  0
  3 15  1  0
  4  5  1  0
  4 17  1  0
  5  6  2  0
  5  7  1  0
  7 21  2  0
  7 25  1  0
  8  9  1  0
  8 12  2  0
  9 10  2  0
 14  9  1  1
 10 11  1  0
 11 12  1  0
 13 12  1  1
 15 16  1  0
 16 17  2  0
 18 16  1  6
 19 18  1  1
 18 20  1  0
 20 19  1  6
 21 22  1  0
 21 26  1  0
 22 23  2  0
 22 29  1  0
 23 24  1  0
 24 25  2  0
 30 25  1  1
 26 27  2  0
 27 28  1  0
 28 29  2  0
M  END
$$$$
