
     RDKit          3D

 30 35  0  0  0  0  0  0  0  0999 V2000
    8.4167   61.5239   -4.8721 C   0  0  0  0  0  0  0  0  0  0  0  0
    8.9403   60.5150   -4.0649 C   0  0  0  0  0  0  0  0  0  0  0  0
    8.1513   59.4723   -3.6284 C   0  0  0  0  0  0  0  0  0  0  0  0
    6.8095   59.3812   -3.9709 C   0  0  0  0  0  0  0  0  0  0  0  0
    6.2733   60.3630   -4.7644 C   0  0  0  0  0  0  0  0  0  0  0  0
    7.0656   61.4021   -5.1976 C   0  0  0  0  0  0  0  0  0  0  0  0
    4.8590   60.2647   -5.1239 C   0  0  0  0  0  0  0  0  0  0  0  0
    9.2229   62.6219   -5.3392 C   0  0  0  0  0  0  0  0  0  0  0  0
    9.5586   63.7425   -4.6305 C   0  0  0  0  0  0  0  0  0  0  0  0
   10.3125   64.5064   -5.4253 N   0  0  0  0  0  0  0  0  0  0  0  0
   10.4625   63.9130   -6.5984 O   0  0  0  0  0  0  0  0  0  0  0  0
    9.8082   62.7634   -6.5709 C   0  0  0  0  0  0  0  0  0  0  0  0
    9.7200   61.7898   -7.6820 C   0  0  0  0  0  0  0  0  0  0  0  0
    9.1650   64.0594   -3.2411 C   0  0  0  0  0  0  0  0  0  0  0  0
    8.4105   58.3886   -2.8520 N   0  0  0  0  0  0  0  0  0  0  0  0
    7.2729   57.6814   -2.7361 C   0  0  0  0  0  0  0  0  0  0  0  0
    6.2768   58.2749   -3.4167 N   0  0  0  0  0  0  0  0  0  0  0  0
    7.1283   56.4300   -1.9724 C   0  0  2  0  0  0  0  0  0  0  0  0
    7.9620   56.2730   -0.6918 C   0  0  0  0  0  0  0  0  0  0  0  0
    8.3018   55.4740   -1.9018 C   0  0  0  0  0  0  0  0  0  0  0  0
    3.9159   60.7236   -4.2205 C   0  0  0  0  0  0  0  0  0  0  0  0
    2.5835   60.6126   -4.5992 C   0  0  0  0  0  0  0  0  0  0  0  0
    2.2172   60.0744   -5.8097 C   0  0  0  0  0  0  0  0  0  0  0  0
    3.1877   59.6303   -6.6779 C   0  0  0  0  0  0  0  0  0  0  0  0
    4.5284   59.7199   -6.3451 C   0  0  0  0  0  0  0  0  0  0  0  0
    4.2729   61.2638   -3.0065 C   0  0  0  0  0  0  0  0  0  0  0  0
    3.2825   61.7016   -2.1540 C   0  0  0  0  0  0  0  0  0  0  0  0
    1.9722   61.5748   -2.5649 C   0  0  0  0  0  0  0  0  0  0  0  0
    1.6392   61.0477   -3.7478 N   0  0  0  0  0  0  0  0  0  0  0  0
    5.5789   59.2436   -7.2754 C   0  0  0  0  0  0  0  0  0  0  0  0
  1  2  2  0
  1  6  1  0
  1  8  1  0
  2  3  1  0
  3  4  2  0
  3 15  1  0
  4  5  1  0
  4 17  1  0
  5  6  2  0
  5  7  1  0
  7 21  2  0
  7 25  1  0
  8  9  1  0
  8 12  2  0
  9 10  2  0
 14  9  1  1
 10 11  1  0
 11 12  1  0
 13 12  1  1
 15 16  1  0
 16 17  2  0
 18 16  1  6
 19 18  1  1
 18 20  1  0
 20 19  1  6
 21 22  1  0
 21 26  1  0
 22 23  2  0
 22 29  1  0
 23 24  1  0
 24 25  2  0
 30 25  1  1
 26 27  2  0
 27 28  1  0
 28 29  2  0
M  END
$$$$
