
     RDKit          3D

 30 35  0  0  0  0  0  0  0  0999 V2000
    8.3520   61.7366   -4.7800 C   0  0  0  0  0  0  0  0  0  0  0  0
    8.8922   60.7012   -4.0185 C   0  0  0  0  0  0  0  0  0  0  0  0
    8.1148   59.6383   -3.6107 C   0  0  0  0  0  0  0  0  0  0  0  0
    6.7689   59.5523   -3.9380 C   0  0  0  0  0  0  0  0  0  0  0  0
    6.2165   60.5600   -4.6867 C   0  0  0  0  0  0  0  0  0  0  0  0
    6.9973   61.6192   -5.0914 C   0  0  0  0  0  0  0  0  0  0  0  0
    4.7980   60.4669   -5.0303 C   0  0  0  0  0  0  0  0  0  0  0  0
    9.1458   62.8560   -5.2165 C   0  0  0  0  0  0  0  0  0  0  0  0
    9.8185   63.7367   -4.4149 C   0  0  0  0  0  0  0  0  0  0  0  0
   10.4252   64.6193   -5.2128 N   0  0  0  0  0  0  0  0  0  0  0  0
   10.1615   64.3290   -6.4765 O   0  0  0  0  0  0  0  0  0  0  0  0
    9.3839   63.2590   -6.5051 C   0  0  0  0  0  0  0  0  0  0  0  0
    8.8569   62.6031   -7.7226 C   0  0  0  0  0  0  0  0  0  0  0  0
    9.8709   63.7233   -2.9375 C   0  0  0  0  0  0  0  0  0  0  0  0
    8.3905   58.5278   -2.8792 N   0  0  0  0  0  0  0  0  0  0  0  0
    7.2584   57.8101   -2.7744 C   0  0  0  0  0  0  0  0  0  0  0  0
    6.2498   58.4229   -3.4186 N   0  0  0  0  0  0  0  0  0  0  0  0
    7.1311   56.5302   -2.0563 C   0  0  2  0  0  0  0  0  0  0  0  0
    7.4600   56.5158   -0.5559 C   0  0  0  0  0  0  0  0  0  0  0  0
    8.3817   55.8599   -1.5245 C   0  0  0  0  0  0  0  0  0  0  0  0
    4.4536   60.0090   -6.2904 C   0  0  0  0  0  0  0  0  0  0  0  0
    3.0962   59.9352   -6.5780 C   0  0  0  0  0  0  0  0  0  0  0  0
    2.1406   60.2982   -5.6591 C   0  0  0  0  0  0  0  0  0  0  0  0
    2.5272   60.7482   -4.4179 C   0  0  0  0  0  0  0  0  0  0  0  0
    3.8678   60.8391   -4.0850 C   0  0  0  0  0  0  0  0  0  0  0  0
    5.4030   59.6434   -7.2168 C   0  0  0  0  0  0  0  0  0  0  0  0
    4.9908   59.1958   -8.4534 C   0  0  0  0  0  0  0  0  0  0  0  0
    3.6355   59.1366   -8.7014 C   0  0  0  0  0  0  0  0  0  0  0  0
    2.7234   59.4951   -7.7918 N   0  0  0  0  0  0  0  0  0  0  0  0
    4.2912   61.3229   -2.7498 C   0  0  0  0  0  0  0  0  0  0  0  0
  1  2  2  0
  1  6  1  0
  1  8  1  0
  2  3  1  0
  3  4  2  0
  3 15  1  0
  4  5  1  0
  4 17  1  0
  5  6  2  0
  5  7  1  0
  7 21  2  0
  7 25  1  0
  8  9  1  0
  8 12  2  0
  9 10  2  0
 14  9  1  1
 10 11  1  0
 11 12  1  0
 13 12  1  1
 15 16  1  0
 16 17  2  0
 18 16  1  6
 19 18  1  1
 18 20  1  0
 20 19  1  6
 21 22  1  0
 21 26  1  0
 22 23  2  0
 22 29  1  0
 23 24  1  0
 24 25  2  0
 30 25  1  1
 26 27  2  0
 27 28  1  0
 28 29  2  0
M  END
$$$$
