
     RDKit          3D

 30 35  0  0  0  0  0  0  0  0999 V2000
    8.6741   61.5227   -4.9710 C   0  0  0  0  0  0  0  0  0  0  0  0
    9.1304   60.5755   -4.0554 C   0  0  0  0  0  0  0  0  0  0  0  0
    8.3158   59.5482   -3.6296 C   0  0  0  0  0  0  0  0  0  0  0  0
    7.0138   59.4121   -4.0904 C   0  0  0  0  0  0  0  0  0  0  0  0
    6.5440   60.3329   -4.9919 C   0  0  0  0  0  0  0  0  0  0  0  0
    7.3617   61.3568   -5.4138 C   0  0  0  0  0  0  0  0  0  0  0  0
    5.1716   60.1872   -5.4760 C   0  0  0  0  0  0  0  0  0  0  0  0
    9.5081   62.6035   -5.4290 C   0  0  0  0  0  0  0  0  0  0  0  0
    9.6933   62.9931   -6.7270 C   0  0  0  0  0  0  0  0  0  0  0  0
   10.5375   64.0279   -6.7165 N   0  0  0  0  0  0  0  0  0  0  0  0
   10.8877   64.3018   -5.4702 O   0  0  0  0  0  0  0  0  0  0  0  0
   10.2738   63.4481   -4.6674 C   0  0  0  0  0  0  0  0  0  0  0  0
   10.3912   63.4077   -3.1926 C   0  0  0  0  0  0  0  0  0  0  0  0
    9.0777   62.3875   -7.9270 C   0  0  0  0  0  0  0  0  0  0  0  0
    8.5127   58.5197   -2.7648 N   0  0  0  0  0  0  0  0  0  0  0  0
    7.3776   57.8010   -2.7117 C   0  0  0  0  0  0  0  0  0  0  0  0
    6.4438   58.3332   -3.5196 N   0  0  0  0  0  0  0  0  0  0  0  0
    7.1757   56.5973   -1.8869 C   0  0  2  0  0  0  0  0  0  0  0  0
    7.7679   56.5937   -0.4695 C   0  0  0  0  0  0  0  0  0  0  0  0
    8.3753   55.7429   -1.5302 C   0  0  0  0  0  0  0  0  0  0  0  0
    4.1399   60.6644   -4.6860 C   0  0  0  0  0  0  0  0  0  0  0  0
    2.8510   60.5071   -5.1810 C   0  0  0  0  0  0  0  0  0  0  0  0
    2.6095   59.9079   -6.3942 C   0  0  0  0  0  0  0  0  0  0  0  0
    3.6648   59.4478   -7.1473 C   0  0  0  0  0  0  0  0  0  0  0  0
    4.9666   59.5819   -6.6962 C   0  0  0  0  0  0  0  0  0  0  0  0
    4.3719   61.2655   -3.4703 C   0  0  0  0  0  0  0  0  0  0  0  0
    3.2983   61.7183   -2.7342 C   0  0  0  0  0  0  0  0  0  0  0  0
    2.0347   61.5442   -3.2585 C   0  0  0  0  0  0  0  0  0  0  0  0
    1.8234   60.9581   -4.4417 N   0  0  0  0  0  0  0  0  0  0  0  0
    6.1080   59.0885   -7.5023 C   0  0  0  0  0  0  0  0  0  0  0  0
  1  2  2  0
  1  6  1  0
  1  8  1  0
  2  3  1  0
  3  4  2  0
  3 15  1  0
  4  5  1  0
  4 17  1  0
  5  6  2  0
  5  7  1  0
  7 21  2  0
  7 25  1  0
  8  9  1  0
  8 12  2  0
  9 10  2  0
 14  9  1  1
 10 11  1  0
 11 12  1  0
 13 12  1  1
 15 16  1  0
 16 17  2  0
 18 16  1  6
 19 18  1  1
 18 20  1  0
 20 19  1  6
 21 22  1  0
 21 26  1  0
 22 23  2  0
 22 29  1  0
 23 24  1  0
 24 25  2  0
 30 25  1  1
 26 27  2  0
 27 28  1  0
 28 29  2  0
M  END
$$$$
