
     RDKit          3D

 30 35  0  0  0  0  0  0  0  0999 V2000
    8.2186   61.6181   -4.8650 C   0  0  0  0  0  0  0  0  0  0  0  0
    8.6845   60.6794   -3.9455 C   0  0  0  0  0  0  0  0  0  0  0  0
    7.8722   59.6603   -3.4963 C   0  0  0  0  0  0  0  0  0  0  0  0
    6.5631   59.5243   -3.9365 C   0  0  0  0  0  0  0  0  0  0  0  0
    6.0838   60.4369   -4.8414 C   0  0  0  0  0  0  0  0  0  0  0  0
    6.8992   61.4527   -5.2867 C   0  0  0  0  0  0  0  0  0  0  0  0
    4.7039   60.2914   -5.3037 C   0  0  0  0  0  0  0  0  0  0  0  0
    9.0500   62.6904   -5.3473 C   0  0  0  0  0  0  0  0  0  0  0  0
    9.2644   63.0269   -6.6555 C   0  0  0  0  0  0  0  0  0  0  0  0
   10.0943   64.0732   -6.6677 N   0  0  0  0  0  0  0  0  0  0  0  0
   10.4075   64.4051   -5.4257 O   0  0  0  0  0  0  0  0  0  0  0  0
    9.7839   63.5776   -4.6030 C   0  0  0  0  0  0  0  0  0  0  0  0
    9.8626   63.6019   -3.1253 C   0  0  0  0  0  0  0  0  0  0  0  0
    8.6890   62.3619   -7.8439 C   0  0  0  0  0  0  0  0  0  0  0  0
    8.0777   58.6409   -2.6229 N   0  0  0  0  0  0  0  0  0  0  0  0
    6.9407   57.9274   -2.5452 C   0  0  0  0  0  0  0  0  0  0  0  0
    5.9974   58.4543   -3.3453 N   0  0  0  0  0  0  0  0  0  0  0  0
    6.7463   56.7339   -1.7039 C   0  0  2  0  0  0  0  0  0  0  0  0
    7.5517   56.6391   -0.3993 C   0  0  0  0  0  0  0  0  0  0  0  0
    7.8903   55.7527   -1.5470 C   0  0  0  0  0  0  0  0  0  0  0  0
    3.6839   60.7536   -4.4900 C   0  0  0  0  0  0  0  0  0  0  0  0
    2.3874   60.5970   -4.9649 C   0  0  0  0  0  0  0  0  0  0  0  0
    2.1276   60.0125   -6.1815 C   0  0  0  0  0  0  0  0  0  0  0  0
    3.1717   59.5669   -6.9585 C   0  0  0  0  0  0  0  0  0  0  0  0
    4.4806   59.7010   -6.5280 C   0  0  0  0  0  0  0  0  0  0  0  0
    3.9342   61.3400   -3.2707 C   0  0  0  0  0  0  0  0  0  0  0  0
    2.8715   61.7783   -2.5106 C   0  0  0  0  0  0  0  0  0  0  0  0
    1.5998   61.6054   -3.0154 C   0  0  0  0  0  0  0  0  0  0  0  0
    1.3708   61.0338   -4.2023 N   0  0  0  0  0  0  0  0  0  0  0  0
    5.6100   59.2232   -7.3600 C   0  0  0  0  0  0  0  0  0  0  0  0
  1  2  2  0
  1  6  1  0
  1  8  1  0
  2  3  1  0
  3  4  2  0
  3 15  1  0
  4  5  1  0
  4 17  1  0
  5  6  2  0
  5  7  1  0
  7 21  2  0
  7 25  1  0
  8  9  1  0
  8 12  2  0
  9 10  2  0
 14  9  1  1
 10 11  1  0
 11 12  1  0
 13 12  1  1
 15 16  1  0
 16 17  2  0
 18 16  1  6
 19 18  1  1
 18 20  1  0
 20 19  1  6
 21 22  1  0
 21 26  1  0
 22 23  2  0
 22 29  1  0
 23 24  1  0
 24 25  2  0
 30 25  1  1
 26 27  2  0
 27 28  1  0
 28 29  2  0
M  END
$$$$
