
     RDKit          3D

 30 35  0  0  0  0  0  0  0  0999 V2000
    8.3277   61.4857   -4.9656 C   0  0  0  0  0  0  0  0  0  0  0  0
    7.0849   62.0714   -4.7284 C   0  0  0  0  0  0  0  0  0  0  0  0
    6.0903   61.3847   -4.0656 C   0  0  0  0  0  0  0  0  0  0  0  0
    6.2805   60.0885   -3.6078 C   0  0  0  0  0  0  0  0  0  0  0  0
    7.4958   59.4927   -3.8303 C   0  0  0  0  0  0  0  0  0  0  0  0
    8.4857   60.1828   -4.4928 C   0  0  0  0  0  0  0  0  0  0  0  0
    7.6938   58.1266   -3.3469 C   0  0  0  0  0  0  0  0  0  0  0  0
    9.3805   62.1849   -5.6559 C   0  0  0  0  0  0  0  0  0  0  0  0
   10.3745   62.9284   -5.0817 C   0  0  0  0  0  0  0  0  0  0  0  0
   11.1388   63.4029   -6.0688 N   0  0  0  0  0  0  0  0  0  0  0  0
   10.6665   62.9890   -7.2334 O   0  0  0  0  0  0  0  0  0  0  0  0
    9.5956   62.2453   -7.0086 C   0  0  0  0  0  0  0  0  0  0  0  0
    8.7655   61.5867   -8.0418 C   0  0  0  0  0  0  0  0  0  0  0  0
   10.5750   63.1688   -3.6368 C   0  0  0  0  0  0  0  0  0  0  0  0
    4.8214   61.7193   -3.7156 N   0  0  0  0  0  0  0  0  0  0  0  0
    4.2780   60.6684   -3.0767 C   0  0  0  0  0  0  0  0  0  0  0  0
    5.1589   59.6556   -3.0001 N   0  0  0  0  0  0  0  0  0  0  0  0
    2.9096   60.6236   -2.5331 C   0  0  2  0  0  0  0  0  0  0  0  0
    1.8419   61.4964   -3.2099 C   0  0  0  0  0  0  0  0  0  0  0  0
    2.3481   61.8579   -1.8568 C   0  0  0  0  0  0  0  0  0  0  0  0
    6.8779   57.1260   -3.8463 C   0  0  0  0  0  0  0  0  0  0  0  0
    7.0976   55.8421   -3.3621 C   0  0  0  0  0  0  0  0  0  0  0  0
    8.0755   55.5759   -2.4337 C   0  0  0  0  0  0  0  0  0  0  0  0
    8.8642   56.6006   -1.9640 C   0  0  0  0  0  0  0  0  0  0  0  0
    8.6831   57.8963   -2.4165 C   0  0  0  0  0  0  0  0  0  0  0  0
    5.8964   57.3828   -4.7757 C   0  0  0  0  0  0  0  0  0  0  0  0
    5.1193   56.3396   -5.2309 C   0  0  0  0  0  0  0  0  0  0  0  0
    5.3673   55.0801   -4.7271 C   0  0  0  0  0  0  0  0  0  0  0  0
    6.3247   54.8444   -3.8238 N   0  0  0  0  0  0  0  0  0  0  0  0
    9.5290   59.0048   -1.9149 C   0  0  0  0  0  0  0  0  0  0  0  0
  1  2  2  0
  1  6  1  0
  1  8  1  0
  2  3  1  0
  3  4  2  0
  3 15  1  0
  4  5  1  0
  4 17  1  0
  5  6  2  0
  5  7  1  0
  7 21  2  0
  7 25  1  0
  8  9  1  0
  8 12  2  0
  9 10  2  0
 14  9  1  1
 10 11  1  0
 11 12  1  0
 13 12  1  1
 15 16  1  0
 16 17  2  0
 18 16  1  6
 19 18  1  1
 18 20  1  0
 20 19  1  6
 21 22  1  0
 21 26  1  0
 22 23  2  0
 22 29  1  0
 23 24  1  0
 24 25  2  0
 30 25  1  1
 26 27  2  0
 27 28  1  0
 28 29  2  0
M  END
$$$$
