
     RDKit          3D

 30 35  0  0  0  0  0  0  0  0999 V2000
    8.3345   61.6804   -4.9811 C   0  0  0  0  0  0  0  0  0  0  0  0
    8.7997   60.7249   -4.0786 C   0  0  0  0  0  0  0  0  0  0  0  0
    7.9846   59.7021   -3.6431 C   0  0  0  0  0  0  0  0  0  0  0  0
    6.6734   59.5787   -4.0808 C   0  0  0  0  0  0  0  0  0  0  0  0
    6.1948   60.5079   -4.9690 C   0  0  0  0  0  0  0  0  0  0  0  0
    7.0129   61.5274   -5.4008 C   0  0  0  0  0  0  0  0  0  0  0  0
    4.8127   60.3757   -5.4288 C   0  0  0  0  0  0  0  0  0  0  0  0
    9.1688   62.7568   -5.4489 C   0  0  0  0  0  0  0  0  0  0  0  0
    9.3818   63.1122   -6.7523 C   0  0  0  0  0  0  0  0  0  0  0  0
   10.2154   64.1557   -6.7504 N   0  0  0  0  0  0  0  0  0  0  0  0
   10.5323   64.4677   -5.5042 O   0  0  0  0  0  0  0  0  0  0  0  0
    9.9074   63.6301   -4.6928 C   0  0  0  0  0  0  0  0  0  0  0  0
    9.9891   63.6319   -3.2151 C   0  0  0  0  0  0  0  0  0  0  0  0
    8.8017   62.4672   -7.9495 C   0  0  0  0  0  0  0  0  0  0  0  0
    8.1888   58.6677   -2.7871 N   0  0  0  0  0  0  0  0  0  0  0  0
    7.0490   57.9578   -2.7169 C   0  0  0  0  0  0  0  0  0  0  0  0
    6.1051   58.5016   -3.5050 N   0  0  0  0  0  0  0  0  0  0  0  0
    6.8524   56.7516   -1.8944 C   0  0  2  0  0  0  0  0  0  0  0  0
    7.2739   56.8154   -0.4186 C   0  0  0  0  0  0  0  0  0  0  0  0
    8.0686   56.0059   -1.3836 C   0  0  0  0  0  0  0  0  0  0  0  0
    3.7977   60.8318   -4.6054 C   0  0  0  0  0  0  0  0  0  0  0  0
    2.4989   60.6882   -5.0780 C   0  0  0  0  0  0  0  0  0  0  0  0
    2.2321   60.1220   -6.3017 C   0  0  0  0  0  0  0  0  0  0  0  0
    3.2715   59.6819   -7.0883 C   0  0  0  0  0  0  0  0  0  0  0  0
    4.5824   59.8035   -6.6604 C   0  0  0  0  0  0  0  0  0  0  0  0
    4.0549   61.3999   -3.3789 C   0  0  0  0  0  0  0  0  0  0  0  0
    2.9969   61.8331   -2.6092 C   0  0  0  0  0  0  0  0  0  0  0  0
    1.7228   61.6735   -3.1122 C   0  0  0  0  0  0  0  0  0  0  0  0
    1.4869   61.1195   -4.3061 N   0  0  0  0  0  0  0  0  0  0  0  0
    5.7066   59.3316   -7.5026 C   0  0  0  0  0  0  0  0  0  0  0  0
  1  2  2  0
  1  6  1  0
  1  8  1  0
  2  3  1  0
  3  4  2  0
  3 15  1  0
  4  5  1  0
  4 17  1  0
  5  6  2  0
  5  7  1  0
  7 21  2  0
  7 25  1  0
  8  9  1  0
  8 12  2  0
  9 10  2  0
 14  9  1  1
 10 11  1  0
 11 12  1  0
 13 12  1  1
 15 16  1  0
 16 17  2  0
 18 16  1  6
 19 18  1  1
 18 20  1  0
 20 19  1  6
 21 22  1  0
 21 26  1  0
 22 23  2  0
 22 29  1  0
 23 24  1  0
 24 25  2  0
 30 25  1  1
 26 27  2  0
 27 28  1  0
 28 29  2  0
M  END
$$$$
