
     RDKit          3D

 30 35  0  0  0  0  0  0  0  0999 V2000
    8.4347   61.2940   -4.9212 C   0  0  0  0  0  0  0  0  0  0  0  0
    8.9887   60.1300   -4.3903 C   0  0  0  0  0  0  0  0  0  0  0  0
    8.1877   59.1192   -3.9036 C   0  0  0  0  0  0  0  0  0  0  0  0
    6.8033   59.2147   -3.9203 C   0  0  0  0  0  0  0  0  0  0  0  0
    6.2366   60.3513   -4.4382 C   0  0  0  0  0  0  0  0  0  0  0  0
    7.0411   61.3577   -4.9230 C   0  0  0  0  0  0  0  0  0  0  0  0
    4.7775   60.4495   -4.4547 C   0  0  0  0  0  0  0  0  0  0  0  0
    9.2527   62.3619   -5.4349 C   0  0  0  0  0  0  0  0  0  0  0  0
    9.7124   62.4888   -6.7168 C   0  0  0  0  0  0  0  0  0  0  0  0
   10.4302   63.6136   -6.7739 N   0  0  0  0  0  0  0  0  0  0  0  0
   10.4393   64.1946   -5.5852 O   0  0  0  0  0  0  0  0  0  0  0  0
    9.7289   63.4515   -4.7524 C   0  0  0  0  0  0  0  0  0  0  0  0
    9.4862   63.7437   -3.3220 C   0  0  0  0  0  0  0  0  0  0  0  0
    9.4662   61.5586   -7.8392 C   0  0  0  0  0  0  0  0  0  0  0  0
    8.4697   57.9127   -3.3475 N   0  0  0  0  0  0  0  0  0  0  0  0
    7.3043   57.3141   -3.0454 C   0  0  0  0  0  0  0  0  0  0  0  0
    6.2678   58.0983   -3.3897 N   0  0  0  0  0  0  0  0  0  0  0  0
    7.1715   55.9851   -2.4239 C   0  0  2  0  0  0  0  0  0  0  0  0
    8.0367   55.6819   -1.1914 C   0  0  0  0  0  0  0  0  0  0  0  0
    8.3405   55.0234   -2.4921 C   0  0  0  0  0  0  0  0  0  0  0  0
    4.1166   60.2466   -5.6540 C   0  0  0  0  0  0  0  0  0  0  0  0
    2.7311   60.3486   -5.6279 C   0  0  0  0  0  0  0  0  0  0  0  0
    2.0479   60.6365   -4.4705 C   0  0  0  0  0  0  0  0  0  0  0  0
    2.7446   60.8309   -3.3002 C   0  0  0  0  0  0  0  0  0  0  0  0
    4.1257   60.7396   -3.2763 C   0  0  0  0  0  0  0  0  0  0  0  0
    4.7919   59.9580   -6.8175 C   0  0  0  0  0  0  0  0  0  0  0  0
    4.0717   59.7674   -7.9770 C   0  0  0  0  0  0  0  0  0  0  0  0
    2.6986   59.8768   -7.9113 C   0  0  0  0  0  0  0  0  0  0  0  0
    2.0549   60.1579   -6.7735 N   0  0  0  0  0  0  0  0  0  0  0  0
    4.8823   60.9478   -2.0193 C   0  0  0  0  0  0  0  0  0  0  0  0
  1  2  2  0
  1  6  1  0
  1  8  1  0
  2  3  1  0
  3  4  2  0
  3 15  1  0
  4  5  1  0
  4 17  1  0
  5  6  2  0
  5  7  1  0
  7 21  2  0
  7 25  1  0
  8  9  1  0
  8 12  2  0
  9 10  2  0
 14  9  1  1
 10 11  1  0
 11 12  1  0
 13 12  1  1
 15 16  1  0
 16 17  2  0
 18 16  1  6
 19 18  1  1
 18 20  1  0
 20 19  1  6
 21 22  1  0
 21 26  1  0
 22 23  2  0
 22 29  1  0
 23 24  1  0
 24 25  2  0
 30 25  1  1
 26 27  2  0
 27 28  1  0
 28 29  2  0
M  END
$$$$
