
     RDKit          3D

 20 22  0  0  0  0  0  0  0  0999 V2000
   -4.4908    5.9788  -20.8847 N   0  0  0  0  0  0  0  0  0  0  0  0
   -4.4159    6.6994  -19.7517 C   0  0  0  0  0  0  0  0  0  0  0  0
   -5.1088    6.2690  -18.6419 C   0  0  0  0  0  0  0  0  0  0  0  0
   -5.8528    5.1021  -18.7614 C   0  0  0  0  0  0  0  0  0  0  0  0
   -5.2014    4.1601  -22.3064 C   0  0  1  0  0  0  0  0  0  0  0  0
   -5.0692    7.0081  -17.3456 C   0  0  0  0  0  0  0  0  0  0  0  0
   -5.3393    4.2381  -24.7348 C   0  0  0  0  0  0  0  0  0  0  0  0
   -4.0256    9.0991  -20.2866 C   0  0  0  0  0  0  0  0  0  0  0  0
   -2.0680   10.2980  -19.5908 C   0  0  0  0  0  0  0  0  0  0  0  0
   -5.1837    4.8672  -21.0415 N   0  0  0  0  0  0  0  0  0  0  0  0
   -3.2847   10.2607  -20.2407 C   0  0  0  0  0  0  0  0  0  0  0  0
   -5.1985    5.0950  -23.4918 C   0  0  0  0  0  0  0  0  0  0  0  0
   -6.5324    3.3744  -20.1008 O   0  0  0  0  0  0  0  0  0  0  0  0
   -2.3862    7.9531  -19.0431 C   0  0  0  0  0  0  0  0  0  0  0  0
   -3.5975    7.9313  -19.6952 C   0  0  0  0  0  0  0  0  0  0  0  0
   -4.3734    3.1804  -24.7815 N   0  0  0  0  0  4  0  0  0  0  0  0
   -4.1080    3.1268  -22.4097 C   0  0  0  0  0  0  0  0  0  0  0  0
   -1.6321    9.1322  -18.9955 C   0  0  0  0  0  0  0  0  0  0  0  0
   -3.3699    3.3300  -23.7225 C   0  0  0  0  0  0  0  0  0  0  0  0
   -5.8695    4.4295  -19.9657 C   0  0  0  0  0  0  0  0  0  0  0  0
  2  1  2  0
  1 10  1  0
  2  3  1  0
 15  2  1  0
  3  4  2  0
  3  6  1  0
  4 20  1  0
  5 10  1  1
  5 12  1  0
  5 17  1  0
 12  7  1  0
  7 16  1  0
  8 11  2  0
  8 15  1  0
 11  9  1  0
  9 18  2  0
 10 20  1  0
 20 13  2  0
 15 14  2  0
 14 18  1  0
 16 19  1  0
 17 19  1  0
M  CHG  1  16   1
M  END
$$$$
