
     RDKit          3D

 20 22  0  0  0  0  0  0  0  0999 V2000
   -4.2199    6.5929  -20.4415 N   0  0  0  0  0  0  0  0  0  0  0  0
   -4.2642    6.9750  -19.1306 C   0  0  0  0  0  0  0  0  0  0  0  0
   -3.2067    7.6438  -18.6030 C   0  0  0  0  0  0  0  0  0  0  0  0
   -2.1093    7.9166  -19.4226 C   0  0  0  0  0  0  0  0  0  0  0  0
   -3.2606    6.3842  -22.6122 C   0  0  1  0  0  0  0  0  0  0  0  0
   -3.2083    8.0887  -17.2037 C   0  0  0  0  0  0  0  0  0  0  0  0
   -4.0898    4.4457  -23.9043 C   0  0  0  0  0  0  0  0  0  0  0  0
   -5.8699    5.3300  -18.2469 C   0  0  0  0  0  0  0  0  0  0  0  0
   -7.7104    6.0582  -16.8966 C   0  0  0  0  0  0  0  0  0  0  0  0
   -3.2023    6.8337  -21.2416 N   0  0  0  0  0  0  0  0  0  0  0  0
   -6.9843    5.0609  -17.5147 C   0  0  0  0  0  0  0  0  0  0  0  0
   -3.2405    4.8853  -22.7445 C   0  0  0  0  0  0  0  0  0  0  0  0
   -1.1617    7.7441  -21.4556 O   0  0  0  0  0  0  0  0  0  0  0  0
   -6.1598    7.6592  -17.7676 C   0  0  0  0  0  0  0  0  0  0  0  0
   -5.4569    6.6476  -18.3717 C   0  0  0  0  0  0  0  0  0  0  0  0
   -4.0389    5.3580  -25.0236 N   0  0  0  0  0  4  0  0  0  0  0  0
   -4.5687    6.8709  -23.2029 C   0  0  0  0  0  0  0  0  0  0  0  0
   -7.2996    7.3648  -17.0211 C   0  0  0  0  0  0  0  0  0  0  0  0
   -4.4358    6.6915  -24.7076 C   0  0  0  0  0  0  0  0  0  0  0  0
   -2.1462    7.4948  -20.7351 C   0  0  0  0  0  0  0  0  0  0  0  0
  2  1  2  0
  1 10  1  0
  2  3  1  0
 15  2  1  0
  3  4  2  0
  6  3  1  6
  4 20  1  0
  5 10  1  1
 12  5  1  1
 17  5  1  1
  7 12  1  1
 16  7  1  1
  8 11  2  0
  8 15  1  0
 11  9  1  0
  9 18  2  0
 10 20  1  0
 20 13  2  0
 15 14  2  0
 14 18  1  0
 16 19  1  0
 19 17  1  6
M  CHG  1  16   1
M  END
$$$$
