
     RDKit          3D

 20 22  0  0  0  0  0  0  0  0999 V2000
   -3.6459    7.4249  -20.9618 N   0  0  0  0  0  0  0  0  0  0  0  0
   -3.9110    7.4206  -19.6216 C   0  0  0  0  0  0  0  0  0  0  0  0
   -2.9310    7.7840  -18.7548 C   0  0  0  0  0  0  0  0  0  0  0  0
   -1.6841    8.1491  -19.2672 C   0  0  0  0  0  0  0  0  0  0  0  0
   -2.3115    7.7324  -22.9114 C   0  0  1  0  0  0  0  0  0  0  0  0
   -3.1669    7.8093  -17.3057 C   0  0  0  0  0  0  0  0  0  0  0  0
   -2.5287    6.1279  -24.7803 C   0  0  0  0  0  0  0  0  0  0  0  0
   -5.4172    6.0090  -18.2784 C   0  0  0  0  0  0  0  0  0  0  0  0
   -7.7875    6.3396  -18.3920 C   0  0  0  0  0  0  0  0  0  0  0  0
   -2.4830    7.7634  -21.4783 N   0  0  0  0  0  0  0  0  0  0  0  0
   -6.6807    5.6833  -17.8941 C   0  0  0  0  0  0  0  0  0  0  0  0
   -1.9154    6.3767  -23.4306 C   0  0  0  0  0  0  0  0  0  0  0  0
   -0.3847    8.4533  -21.0782 O   0  0  0  0  0  0  0  0  0  0  0  0
   -6.3261    7.7015  -19.7095 C   0  0  0  0  0  0  0  0  0  0  0  0
   -5.2434    7.0318  -19.1981 C   0  0  0  0  0  0  0  0  0  0  0  0
   -2.6052    7.3170  -25.5974 N   0  0  0  0  0  4  0  0  0  0  0  0
   -3.6428    8.0856  -23.5438 C   0  0  0  0  0  0  0  0  0  0  0  0
   -7.6138    7.3541  -19.3042 C   0  0  0  0  0  0  0  0  0  0  0  0
   -3.3408    8.3859  -25.0042 C   0  0  0  0  0  0  0  0  0  0  0  0
   -1.5008    8.1256  -20.6338 C   0  0  0  0  0  0  0  0  0  0  0  0
  2  1  2  0
  1 10  1  0
  2  3  1  0
 15  2  1  0
  3  4  2  0
  6  3  1  6
  4 20  1  0
  5 10  1  1
 12  5  1  1
 17  5  1  1
  7 12  1  1
 16  7  1  1
  8 11  2  0
  8 15  1  0
 11  9  1  0
  9 18  2  0
 10 20  1  0
 20 13  2  0
 15 14  2  0
 14 18  1  0
 16 19  1  0
 19 17  1  6
M  CHG  1  16   1
M  END
$$$$
