
     RDKit          3D

 20 22  0  0  0  0  0  0  0  0999 V2000
   -4.5554    6.5753  -21.2861 N   0  0  0  0  0  0  0  0  0  0  0  0
   -4.2060    6.7950  -20.0061 C   0  0  0  0  0  0  0  0  0  0  0  0
   -4.5017    5.8372  -19.0616 C   0  0  0  0  0  0  0  0  0  0  0  0
   -5.1516    4.6879  -19.4931 C   0  0  0  0  0  0  0  0  0  0  0  0
   -5.5074    5.3558  -23.1409 C   0  0  1  0  0  0  0  0  0  0  0  0
   -4.1389    6.0027  -17.6230 C   0  0  0  0  0  0  0  0  0  0  0  0
   -6.4362    6.3239  -25.1713 C   0  0  0  0  0  0  0  0  0  0  0  0
   -2.4059    8.4868  -20.3129 C   0  0  0  0  0  0  0  0  0  0  0  0
   -2.1702   10.4217  -18.9148 C   0  0  0  0  0  0  0  0  0  0  0  0
   -5.1722    5.5005  -21.7384 N   0  0  0  0  0  0  0  0  0  0  0  0
   -1.7451    9.6488  -19.9759 C   0  0  0  0  0  0  0  0  0  0  0  0
   -6.0124    6.6414  -23.7505 C   0  0  0  0  0  0  0  0  0  0  0  0
   -6.0570    3.5242  -21.2444 O   0  0  0  0  0  0  0  0  0  0  0  0
   -3.9451    8.8023  -18.5582 C   0  0  0  0  0  0  0  0  0  0  0  0
   -3.5092    8.0419  -19.6188 C   0  0  0  0  0  0  0  0  0  0  0  0
   -5.4083    5.6529  -25.9109 N   0  0  0  0  0  4  0  0  0  0  0  0
   -4.3816    4.7612  -23.9490 C   0  0  0  0  0  0  0  0  0  0  0  0
   -3.2749    9.9829  -18.2144 C   0  0  0  0  0  0  0  0  0  0  0  0
   -4.1437    5.6364  -25.1683 C   0  0  0  0  0  0  0  0  0  0  0  0
   -5.4707    4.5509  -20.8282 C   0  0  0  0  0  0  0  0  0  0  0  0
  2  1  2  0
  1 10  1  0
  2  3  1  0
 15  2  1  0
  3  4  2  0
  3  6  1  0
  4 20  1  0
  5 10  1  1
  5 12  1  0
  5 17  1  0
 12  7  1  0
  7 16  1  0
  8 11  2  0
  8 15  1  0
 11  9  1  0
  9 18  2  0
 10 20  1  0
 20 13  2  0
 15 14  2  0
 14 18  1  0
 16 19  1  0
 17 19  1  0
M  CHG  1  16   1
M  END
$$$$
