
     RDKit          3D

 20 22  0  0  0  0  0  0  0  0999 V2000
   -3.7235    7.3967  -21.0859 N   0  0  0  0  0  0  0  0  0  0  0  0
   -3.7952    7.4678  -19.7235 C   0  0  0  0  0  0  0  0  0  0  0  0
   -2.6686    7.7445  -19.0178 C   0  0  0  0  0  0  0  0  0  0  0  0
   -1.4743    7.9462  -19.7132 C   0  0  0  0  0  0  0  0  0  0  0  0
   -2.6527    7.4831  -23.2124 C   0  0  1  0  0  0  0  0  0  0  0  0
   -2.6929    7.8452  -17.5530 C   0  0  0  0  0  0  0  0  0  0  0  0
   -3.2118    5.8180  -24.9530 C   0  0  0  0  0  0  0  0  0  0  0  0
   -6.1488    8.1019  -19.3712 C   0  0  0  0  0  0  0  0  0  0  0  0
   -7.5412    6.7871  -17.9313 C   0  0  0  0  0  0  0  0  0  0  0  0
   -2.6153    7.5815  -21.7726 N   0  0  0  0  0  0  0  0  0  0  0  0
   -7.3503    7.8559  -18.7828 C   0  0  0  0  0  0  0  0  0  0  0  0
   -2.4002    6.0880  -23.7168 C   0  0  0  0  0  0  0  0  0  0  0  0
   -0.4188    8.0379  -21.6977 O   0  0  0  0  0  0  0  0  0  0  0  0
   -5.2504    6.1789  -18.2604 C   0  0  0  0  0  0  0  0  0  0  0  0
   -5.0887    7.2495  -19.1031 C   0  0  0  0  0  0  0  0  0  0  0  0
   -3.3478    6.9754  -25.8071 N   0  0  0  0  0  4  0  0  0  0  0  0
   -4.0425    7.8818  -23.6669 C   0  0  0  0  0  0  0  0  0  0  0  0
   -6.4889    5.9422  -17.6662 C   0  0  0  0  0  0  0  0  0  0  0  0
   -3.9390    8.1058  -25.1679 C   0  0  0  0  0  0  0  0  0  0  0  0
   -1.4899    7.8561  -21.0892 C   0  0  0  0  0  0  0  0  0  0  0  0
  2  1  2  0
  1 10  1  0
  2  3  1  0
 15  2  1  0
  3  4  2  0
  6  3  1  6
  4 20  1  0
  5 10  1  1
 12  5  1  1
 17  5  1  1
  7 12  1  1
 16  7  1  1
  8 11  2  0
  8 15  1  0
 11  9  1  0
  9 18  2  0
 10 20  1  0
 20 13  2  0
 15 14  2  0
 14 18  1  0
 16 19  1  0
 19 17  1  6
M  CHG  1  16   1
M  END
$$$$
