
     RDKit          3D

 20 22  0  0  0  0  0  0  0  0999 V2000
   -4.5581    6.4851  -20.9570 N   0  0  0  0  0  0  0  0  0  0  0  0
   -4.4700    6.7022  -19.6110 C   0  0  0  0  0  0  0  0  0  0  0  0
   -5.3631    6.0975  -18.7861 C   0  0  0  0  0  0  0  0  0  0  0  0
   -6.3422    5.2740  -19.3460 C   0  0  0  0  0  0  0  0  0  0  0  0
   -5.4692    5.5556  -22.9524 C   0  0  1  0  0  0  0  0  0  0  0  0
   -5.3051    6.2866  -17.3311 C   0  0  0  0  0  0  0  0  0  0  0  0
   -6.0949    6.8409  -24.9702 C   0  0  0  0  0  0  0  0  0  0  0  0
   -2.0819    7.2649  -19.3971 C   0  0  0  0  0  0  0  0  0  0  0  0
   -1.4191    9.2571  -18.2426 C   0  0  0  0  0  0  0  0  0  0  0  0
   -5.4675    5.7154  -21.5177 N   0  0  0  0  0  0  0  0  0  0  0  0
   -1.1158    8.1106  -18.9479 C   0  0  0  0  0  0  0  0  0  0  0  0
   -6.5610    6.3360  -23.6332 C   0  0  0  0  0  0  0  0  0  0  0  0
   -7.2381    4.3723  -21.2022 O   0  0  0  0  0  0  0  0  0  0  0  0
   -3.7390    8.7034  -18.4362 C   0  0  0  0  0  0  0  0  0  0  0  0
   -3.4087    7.5699  -19.1351 C   0  0  0  0  0  0  0  0  0  0  0  0
   -5.2143    5.9189  -25.6499 N   0  0  0  0  0  4  0  0  0  0  0  0
   -4.1472    6.0788  -23.4773 C   0  0  0  0  0  0  0  0  0  0  0  0
   -2.7357    9.5586  -17.9834 C   0  0  0  0  0  0  0  0  0  0  0  0
   -4.0430    5.5780  -24.9099 C   0  0  0  0  0  0  0  0  0  0  0  0
   -6.3603    5.1090  -20.7151 C   0  0  0  0  0  0  0  0  0  0  0  0
  2  1  2  0
  1 10  1  0
  2  3  1  0
 15  2  1  0
  3  4  2  0
  6  3  1  6
  4 20  1  0
  5 10  1  1
 12  5  1  1
 17  5  1  1
  7 12  1  1
 16  7  1  1
  8 11  2  0
  8 15  1  0
 11  9  1  0
  9 18  2  0
 10 20  1  0
 20 13  2  0
 15 14  2  0
 14 18  1  0
 16 19  1  0
 19 17  1  6
M  CHG  1  16   1
M  END
$$$$
