
     RDKit          3D

 20 22  0  0  0  0  0  0  0  0999 V2000
   -3.8376    6.6470  -20.6100 N   0  0  0  0  0  0  0  0  0  0  0  0
   -4.0990    7.2789  -19.4520 C   0  0  0  0  0  0  0  0  0  0  0  0
   -3.5797    8.5382  -19.2488 C   0  0  0  0  0  0  0  0  0  0  0  0
   -2.8073    9.0865  -20.2648 C   0  0  0  0  0  0  0  0  0  0  0  0
   -2.8857    6.3695  -22.8124 C   0  0  1  0  0  0  0  0  0  0  0  0
   -3.8318    9.3078  -17.9948 C   0  0  0  0  0  0  0  0  0  0  0  0
   -2.4690    4.2213  -23.8774 C   0  0  0  0  0  0  0  0  0  0  0  0
   -6.2300    6.2470  -18.6834 C   0  0  0  0  0  0  0  0  0  0  0  0
   -6.5502    5.3928  -16.4649 C   0  0  0  0  0  0  0  0  0  0  0  0
   -3.1108    7.1298  -21.5994 N   0  0  0  0  0  0  0  0  0  0  0  0
   -7.0263    5.6390  -17.7364 C   0  0  0  0  0  0  0  0  0  0  0  0
   -2.8257    4.8822  -22.5602 C   0  0  0  0  0  0  0  0  0  0  0  0
   -1.9001    8.8332  -22.3514 O   0  0  0  0  0  0  0  0  0  0  0  0
   -4.4474    6.3961  -17.1513 C   0  0  0  0  0  0  0  0  0  0  0  0
   -4.9362    6.6353  -18.4150 C   0  0  0  0  0  0  0  0  0  0  0  0
   -3.3321    4.6312  -24.9455 N   0  0  0  0  0  4  0  0  0  0  0  0
   -3.8703    6.7100  -23.9026 C   0  0  0  0  0  0  0  0  0  0  0  0
   -5.2549    5.7787  -16.1880 C   0  0  0  0  0  0  0  0  0  0  0  0
   -4.4625    5.4189  -24.4430 C   0  0  0  0  0  0  0  0  0  0  0  0
   -2.5931    8.3622  -21.4191 C   0  0  0  0  0  0  0  0  0  0  0  0
  2  1  2  0
  1 10  1  0
  2  3  1  0
 15  2  1  0
  3  4  2  0
  3  6  1  0
  4 20  1  0
  5 10  1  1
  5 12  1  0
  5 17  1  0
 12  7  1  0
  7 16  1  0
  8 11  2  0
  8 15  1  0
 11  9  1  0
  9 18  2  0
 10 20  1  0
 20 13  2  0
 15 14  2  0
 14 18  1  0
 16 19  1  0
 17 19  1  0
M  CHG  1  16   1
M  END
$$$$
