
     RDKit          3D

 20 22  0  0  0  0  0  0  0  0999 V2000
   -4.2986    5.7313  -20.8692 N   0  0  0  0  0  0  0  0  0  0  0  0
   -4.5088    6.1133  -19.5745 C   0  0  0  0  0  0  0  0  0  0  0  0
   -5.3265    5.3641  -18.7908 C   0  0  0  0  0  0  0  0  0  0  0  0
   -5.9246    4.2276  -19.3395 C   0  0  0  0  0  0  0  0  0  0  0  0
   -4.5545    4.3550  -22.7970 C   0  0  1  0  0  0  0  0  0  0  0  0
   -5.5762    5.7226  -17.3890 C   0  0  0  0  0  0  0  0  0  0  0  0
   -4.9227    5.3200  -25.0438 C   0  0  0  0  0  0  0  0  0  0  0  0
   -2.6327    7.2078  -18.4137 C   0  0  0  0  0  0  0  0  0  0  0  0
   -2.5539    9.5970  -18.2518 C   0  0  0  0  0  0  0  0  0  0  0  0
   -4.8457    4.6666  -21.4178 N   0  0  0  0  0  0  0  0  0  0  0  0
   -2.0190    8.3499  -18.0021 C   0  0  0  0  0  0  0  0  0  0  0  0
   -5.5765    4.9033  -23.7558 C   0  0  0  0  0  0  0  0  0  0  0  0
   -6.1980    2.8977  -21.1333 O   0  0  0  0  0  0  0  0  0  0  0  0
   -4.3854    8.5342  -19.3663 C   0  0  0  0  0  0  0  0  0  0  0  0
   -3.8309    7.3069  -19.1041 C   0  0  0  0  0  0  0  0  0  0  0  0
   -3.8300    4.4577  -25.4310 N   0  0  0  0  0  4  0  0  0  0  0  0
   -3.2240    4.9924  -23.1438 C   0  0  0  0  0  0  0  0  0  0  0  0
   -3.7426    9.6940  -18.9368 C   0  0  0  0  0  0  0  0  0  0  0  0
   -2.7915    4.3594  -24.4576 C   0  0  0  0  0  0  0  0  0  0  0  0
   -5.6587    3.9135  -20.6558 C   0  0  0  0  0  0  0  0  0  0  0  0
  2  1  2  0
  1 10  1  0
  2  3  1  0
 15  2  1  0
  3  4  2  0
  6  3  1  6
  4 20  1  0
  5 10  1  1
 12  5  1  1
 17  5  1  1
  7 12  1  1
 16  7  1  1
  8 11  2  0
  8 15  1  0
 11  9  1  0
  9 18  2  0
 10 20  1  0
 20 13  2  0
 15 14  2  0
 14 18  1  0
 16 19  1  0
 19 17  1  6
M  CHG  1  16   1
M  END
$$$$
