
     RDKit          3D

 20 22  0  0  0  0  0  0  0  0999 V2000
    5.6127    5.1822   -7.5808 N   0  0  0  0  0  0  0  0  0  0  0  0
    4.3313    4.9439   -7.9900 C   0  0  0  0  0  0  0  0  0  0  0  0
    3.4649    4.3484   -7.1306 C   0  0  0  0  0  0  0  0  0  0  0  0
    3.9178    3.9998   -5.8562 C   0  0  0  0  0  0  0  0  0  0  0  0
    7.4460    5.1649   -6.0594 C   0  0  1  0  0  0  0  0  0  0  0  0
    2.0732    4.0813   -7.5152 C   0  0  0  0  0  0  0  0  0  0  0  0
    9.6910    4.9652   -7.0768 C   0  0  0  0  0  0  0  0  0  0  0  0
    2.8764    6.1891   -9.5387 C   0  0  0  0  0  0  0  0  0  0  0  0
    3.3127    6.1391  -11.8941 C   0  0  0  0  0  0  0  0  0  0  0  0
    6.0721    4.8671   -6.3878 N   0  0  0  0  0  0  0  0  0  0  0  0
    2.5722    6.5644  -10.8103 C   0  0  0  0  0  0  0  0  0  0  0  0
    8.4271    4.2340   -6.7193 C   0  0  0  0  0  0  0  0  0  0  0  0
    5.6191    3.9605   -4.3849 O   0  0  0  0  0  0  0  0  0  0  0  0
    4.7177    4.9163  -10.3920 C   0  0  0  0  0  0  0  0  0  0  0  0
    3.9639    5.3542   -9.3326 C   0  0  0  0  0  0  0  0  0  0  0  0
   10.0571    5.9735   -6.1089 N   0  0  0  0  0  4  0  0  0  0  0  0
    7.7475    6.5641   -6.5579 C   0  0  0  0  0  0  0  0  0  0  0  0
    4.3913    5.3111  -11.6883 C   0  0  0  0  0  0  0  0  0  0  0  0
    9.0558    6.9671   -5.8947 C   0  0  0  0  0  0  0  0  0  0  0  0
    5.2274    4.2761   -5.5240 C   0  0  0  0  0  0  0  0  0  0  0  0
  2  1  2  0
  1 10  1  0
  2  3  1  0
 15  2  1  0
  3  4  2  0
  6  3  1  6
  4 20  1  0
  5 10  1  6
 12  5  1  1
 17  5  1  1
  7 12  1  1
 16  7  1  1
  8 11  2  0
  8 15  1  0
 11  9  1  0
  9 18  2  0
 10 20  1  0
 20 13  2  0
 15 14  2  0
 14 18  1  0
 16 19  1  0
 19 17  1  6
M  CHG  1  16   1
M  END
$$$$
