
     RDKit          3D

 20 22  0  0  0  0  0  0  0  0999 V2000
   -4.3790    5.9576  -21.0043 N   0  0  0  0  0  0  0  0  0  0  0  0
   -4.2662    6.8134  -19.9454 C   0  0  0  0  0  0  0  0  0  0  0  0
   -4.8688    6.4925  -18.7716 C   0  0  0  0  0  0  0  0  0  0  0  0
   -5.5844    5.2959  -18.6904 C   0  0  0  0  0  0  0  0  0  0  0  0
   -5.0999    3.9925  -22.1420 C   0  0  1  0  0  0  0  0  0  0  0  0
   -4.7681    7.3704  -17.5989 C   0  0  0  0  0  0  0  0  0  0  0  0
   -6.6076    3.5714  -24.0563 C   0  0  0  0  0  0  0  0  0  0  0  0
   -4.0179    9.0883  -20.8557 C   0  0  0  0  0  0  0  0  0  0  0  0
   -2.0064   10.3266  -20.4541 C   0  0  0  0  0  0  0  0  0  0  0  0
   -5.0451    4.8226  -20.9622 N   0  0  0  0  0  0  0  0  0  0  0  0
   -3.2684   10.2142  -21.0005 C   0  0  0  0  0  0  0  0  0  0  0  0
   -6.5045    3.6486  -22.5585 C   0  0  0  0  0  0  0  0  0  0  0  0
   -6.2894    3.4253  -19.7221 O   0  0  0  0  0  0  0  0  0  0  0  0
   -2.2401    8.1104  -19.5823 C   0  0  0  0  0  0  0  0  0  0  0  0
   -3.4923    8.0259  -20.1366 C   0  0  0  0  0  0  0  0  0  0  0  0
   -5.4226    3.0291  -24.6800 N   0  0  0  0  0  4  0  0  0  0  0  0
   -4.4690    4.7670  -23.2818 C   0  0  0  0  0  0  0  0  0  0  0  0
   -1.4861    9.2720  -19.7409 C   0  0  0  0  0  0  0  0  0  0  0  0
   -4.2274    3.7519  -24.3886 C   0  0  0  0  0  0  0  0  0  0  0  0
   -5.6485    4.4894  -19.8073 C   0  0  0  0  0  0  0  0  0  0  0  0
  2  1  2  0
  1 10  1  0
  2  3  1  0
 15  2  1  0
  3  4  2  0
  6  3  1  6
  4 20  1  0
  5 10  1  1
 12  5  1  1
 17  5  1  1
  7 12  1  1
 16  7  1  1
  8 11  2  0
  8 15  1  0
 11  9  1  0
  9 18  2  0
 10 20  1  0
 20 13  2  0
 15 14  2  0
 14 18  1  0
 16 19  1  0
 19 17  1  6
M  CHG  1  16   1
M  END
$$$$
