
     RDKit          3D

 20 22  0  0  0  0  0  0  0  0999 V2000
   -3.4686    6.6929  -20.7845 N   0  0  0  0  0  0  0  0  0  0  0  0
   -3.8388    7.2444  -19.6152 C   0  0  0  0  0  0  0  0  0  0  0  0
   -2.8881    7.8820  -18.8493 C   0  0  0  0  0  0  0  0  0  0  0  0
   -1.5879    7.9171  -19.3367 C   0  0  0  0  0  0  0  0  0  0  0  0
   -1.9472    6.0793  -22.5572 C   0  0  1  0  0  0  0  0  0  0  0  0
   -3.2216    8.5263  -17.5446 C   0  0  0  0  0  0  0  0  0  0  0  0
   -2.1791    4.1694  -24.0474 C   0  0  0  0  0  0  0  0  0  0  0  0
   -5.5723    6.6408  -17.9336 C   0  0  0  0  0  0  0  0  0  0  0  0
   -7.9148    7.0399  -18.2613 C   0  0  0  0  0  0  0  0  0  0  0  0
   -2.2477    6.7032  -21.2842 N   0  0  0  0  0  0  0  0  0  0  0  0
   -6.8742    6.5713  -17.4856 C   0  0  0  0  0  0  0  0  0  0  0  0
   -2.6706    4.7674  -22.7436 C   0  0  0  0  0  0  0  0  0  0  0  0
   -0.1376    7.3399  -21.0113 O   0  0  0  0  0  0  0  0  0  0  0  0
   -6.2727    7.6453  -19.9455 C   0  0  0  0  0  0  0  0  0  0  0  0
   -5.2456    7.1737  -19.1609 C   0  0  0  0  0  0  0  0  0  0  0  0
   -2.2784    5.0891  -25.1420 N   0  0  0  0  0  4  0  0  0  0  0  0
   -2.1673    7.0072  -23.7253 C   0  0  0  0  0  0  0  0  0  0  0  0
   -7.5959    7.5754  -19.4921 C   0  0  0  0  0  0  0  0  0  0  0  0
   -3.0228    6.2931  -24.7586 C   0  0  0  0  0  0  0  0  0  0  0  0
   -1.3023    7.3228  -20.5484 C   0  0  0  0  0  0  0  0  0  0  0  0
  2  1  2  0
  1 10  1  0
  2  3  1  0
 15  2  1  0
  3  4  2  0
  3  6  1  0
  4 20  1  0
  5 10  1  1
  5 12  1  0
  5 17  1  0
 12  7  1  0
  7 16  1  0
  8 11  2  0
  8 15  1  0
 11  9  1  0
  9 18  2  0
 10 20  1  0
 20 13  2  0
 15 14  2  0
 14 18  1  0
 16 19  1  0
 17 19  1  0
M  CHG  1  16   1
M  END
$$$$
