
     RDKit          3D

 20 22  0  0  0  0  0  0  0  0999 V2000
   -4.3607    6.0918  -20.2388 N   0  0  0  0  0  0  0  0  0  0  0  0
   -4.5192    6.9717  -19.2059 C   0  0  0  0  0  0  0  0  0  0  0  0
   -5.0664    8.1892  -19.4554 C   0  0  0  0  0  0  0  0  0  0  0  0
   -5.4475    8.4979  -20.7630 C   0  0  0  0  0  0  0  0  0  0  0  0
   -4.4963    5.3460  -22.4974 C   0  0  1  0  0  0  0  0  0  0  0  0
   -5.2710    9.1672  -18.3793 C   0  0  0  0  0  0  0  0  0  0  0  0
   -2.6579    3.9463  -23.3786 C   0  0  0  0  0  0  0  0  0  0  0  0
   -2.7484    6.4316  -17.5817 C   0  0  0  0  0  0  0  0  0  0  0  0
   -3.3283    5.7626  -15.3552 C   0  0  0  0  0  0  0  0  0  0  0  0
   -4.7089    6.3500  -21.4821 N   0  0  0  0  0  0  0  0  0  0  0  0
   -2.3909    6.0440  -16.3278 C   0  0  0  0  0  0  0  0  0  0  0  0
   -3.0944    5.3455  -23.0445 C   0  0  0  0  0  0  0  0  0  0  0  0
   -5.5959    7.8387  -22.9088 O   0  0  0  0  0  0  0  0  0  0  0  0
   -5.0501    6.2721  -16.9370 C   0  0  0  0  0  0  0  0  0  0  0  0
   -4.0965    6.5454  -17.8848 C   0  0  0  0  0  0  0  0  0  0  0  0
   -3.7288    3.1254  -23.8952 N   0  0  0  0  0  4  0  0  0  0  0  0
   -4.7326    3.9900  -21.8631 C   0  0  0  0  0  0  0  0  0  0  0  0
   -4.6653    5.8760  -15.6571 C   0  0  0  0  0  0  0  0  0  0  0  0
   -4.8479    3.0069  -23.0181 C   0  0  0  0  0  0  0  0  0  0  0  0
   -5.2520    7.5515  -21.7470 C   0  0  0  0  0  0  0  0  0  0  0  0
  2  1  2  0
  1 10  1  0
  2  3  1  0
 15  2  1  0
  3  4  2  0
  6  3  1  6
  4 20  1  0
  5 10  1  1
 12  5  1  1
 17  5  1  1
  7 12  1  1
 16  7  1  1
  8 11  2  0
  8 15  1  0
 11  9  1  0
  9 18  2  0
 10 20  1  0
 20 13  2  0
 15 14  2  0
 14 18  1  0
 16 19  1  0
 19 17  1  6
M  CHG  1  16   1
M  END
$$$$
