
     RDKit          3D

 20 22  0  0  0  0  0  0  0  0999 V2000
   -3.7337    7.5603  -21.1976 N   0  0  0  0  0  0  0  0  0  0  0  0
   -4.2101    7.4922  -19.9190 C   0  0  0  0  0  0  0  0  0  0  0  0
   -3.4888    8.0561  -18.9161 C   0  0  0  0  0  0  0  0  0  0  0  0
   -2.2826    8.6862  -19.2300 C   0  0  0  0  0  0  0  0  0  0  0  0
   -2.1927    8.1598  -22.9127 C   0  0  1  0  0  0  0  0  0  0  0  0
   -3.9615    8.0228  -17.5263 C   0  0  0  0  0  0  0  0  0  0  0  0
   -1.4539    6.5669  -24.6538 C   0  0  0  0  0  0  0  0  0  0  0  0
   -6.6118    7.2259  -20.3945 C   0  0  0  0  0  0  0  0  0  0  0  0
   -7.8661    5.5027  -19.2998 C   0  0  0  0  0  0  0  0  0  0  0  0
   -2.6019    8.1461  -21.5283 N   0  0  0  0  0  0  0  0  0  0  0  0
   -7.7795    6.5620  -20.1796 C   0  0  0  0  0  0  0  0  0  0  0  0
   -1.2217    7.0618  -23.2535 C   0  0  0  0  0  0  0  0  0  0  0  0
   -0.7975    9.2743  -20.8141 O   0  0  0  0  0  0  0  0  0  0  0  0
   -5.5360    5.7704  -18.8252 C   0  0  0  0  0  0  0  0  0  0  0  0
   -5.4787    6.8208  -19.7059 C   0  0  0  0  0  0  0  0  0  0  0  0
   -1.8452    7.6143  -25.5689 N   0  0  0  0  0  4  0  0  0  0  0  0
   -3.4295    7.9471  -23.7623 C   0  0  0  0  0  0  0  0  0  0  0  0
   -6.7413    5.1017  -18.6174 C   0  0  0  0  0  0  0  0  0  0  0  0
   -3.0255    8.3161  -25.1817 C   0  0  0  0  0  0  0  0  0  0  0  0
   -1.8746    8.7095  -20.5472 C   0  0  0  0  0  0  0  0  0  0  0  0
  2  1  2  0
  1 10  1  0
  2  3  1  0
 15  2  1  0
  3  4  2  0
  6  3  1  6
  4 20  1  0
  5 10  1  1
 12  5  1  1
 17  5  1  1
  7 12  1  1
 16  7  1  1
  8 11  2  0
  8 15  1  0
 11  9  1  0
  9 18  2  0
 10 20  1  0
 20 13  2  0
 15 14  2  0
 14 18  1  0
 16 19  1  0
 19 17  1  6
M  CHG  1  16   1
M  END
$$$$
