
     RDKit          3D

 20 22  0  0  0  0  0  0  0  0999 V2000
   -4.2695    6.0051  -20.8082 N   0  0  0  0  0  0  0  0  0  0  0  0
   -4.1807    6.6840  -19.6259 C   0  0  0  0  0  0  0  0  0  0  0  0
   -3.0388    7.3603  -19.3385 C   0  0  0  0  0  0  0  0  0  0  0  0
   -1.9940    7.3362  -20.2650 C   0  0  0  0  0  0  0  0  0  0  0  0
   -3.5052    5.2129  -22.9210 C   0  0  1  0  0  0  0  0  0  0  0  0
   -2.8959    8.1167  -18.0881 C   0  0  0  0  0  0  0  0  0  0  0  0
   -4.3016    2.9807  -23.6268 C   0  0  0  0  0  0  0  0  0  0  0  0
   -5.8420    5.4380  -18.3020 C   0  0  0  0  0  0  0  0  0  0  0  0
   -7.4928    6.6213  -17.0309 C   0  0  0  0  0  0  0  0  0  0  0  0
   -3.3048    5.9618  -21.7032 N   0  0  0  0  0  0  0  0  0  0  0  0
   -6.9098    5.4464  -17.4594 C   0  0  0  0  0  0  0  0  0  0  0  0
   -3.3499    3.7278  -22.7346 C   0  0  0  0  0  0  0  0  0  0  0  0
   -1.2277    6.6122  -22.2523 O   0  0  0  0  0  0  0  0  0  0  0  0
   -5.8889    7.8329  -18.3293 C   0  0  0  0  0  0  0  0  0  0  0  0
   -5.3290    6.6494  -18.7395 C   0  0  0  0  0  0  0  0  0  0  0  0
   -4.4994    3.6195  -24.9076 N   0  0  0  0  0  4  0  0  0  0  0  0
   -4.9253    5.4621  -23.3883 C   0  0  0  0  0  0  0  0  0  0  0  0
   -6.9829    7.8224  -17.4656 C   0  0  0  0  0  0  0  0  0  0  0  0
   -4.9836    4.9589  -24.8227 C   0  0  0  0  0  0  0  0  0  0  0  0
   -2.1665    6.6259  -21.4344 C   0  0  0  0  0  0  0  0  0  0  0  0
  2  1  2  0
  1 10  1  0
  2  3  1  0
 15  2  1  0
  3  4  2  0
  6  3  1  6
  4 20  1  0
  5 10  1  1
 12  5  1  1
 17  5  1  1
  7 12  1  1
 16  7  1  1
  8 11  2  0
  8 15  1  0
 11  9  1  0
  9 18  2  0
 10 20  1  0
 20 13  2  0
 15 14  2  0
 14 18  1  0
 16 19  1  0
 19 17  1  6
M  CHG  1  16   1
M  END
$$$$
