
     RDKit          3D

 20 22  0  0  0  0  0  0  0  0999 V2000
   -4.3381    6.2069  -20.7116 N   0  0  0  0  0  0  0  0  0  0  0  0
   -4.2904    7.0086  -19.6063 C   0  0  0  0  0  0  0  0  0  0  0  0
   -5.1047    6.7314  -18.5555 C   0  0  0  0  0  0  0  0  0  0  0  0
   -5.9638    5.6339  -18.6443 C   0  0  0  0  0  0  0  0  0  0  0  0
   -5.1038    4.3855  -22.0427 C   0  0  1  0  0  0  0  0  0  0  0  0
   -5.0841    7.5530  -17.3387 C   0  0  0  0  0  0  0  0  0  0  0  0
   -5.2822    4.7310  -24.4847 C   0  0  0  0  0  0  0  0  0  0  0  0
   -2.2216    8.0876  -18.8183 C   0  0  0  0  0  0  0  0  0  0  0  0
   -1.5822   10.2284  -19.6837 C   0  0  0  0  0  0  0  0  0  0  0  0
   -5.1351    5.1654  -20.8282 N   0  0  0  0  0  0  0  0  0  0  0  0
   -1.3600    9.1391  -18.8665 C   0  0  0  0  0  0  0  0  0  0  0  0
   -5.9279    4.9831  -23.1509 C   0  0  0  0  0  0  0  0  0  0  0  0
   -6.7192    3.9009  -19.8637 O   0  0  0  0  0  0  0  0  0  0  0  0
   -3.6007    9.1882  -20.4386 C   0  0  0  0  0  0  0  0  0  0  0  0
   -3.3548    8.1177  -19.6165 C   0  0  0  0  0  0  0  0  0  0  0  0
   -4.6284    3.4450  -24.5652 N   0  0  0  0  0  4  0  0  0  0  0  0
   -3.6677    4.3382  -22.5246 C   0  0  0  0  0  0  0  0  0  0  0  0
   -2.7067   10.2570  -20.4751 C   0  0  0  0  0  0  0  0  0  0  0  0
   -3.6199    3.2407  -23.5768 C   0  0  0  0  0  0  0  0  0  0  0  0
   -5.9486    4.8767  -19.7968 C   0  0  0  0  0  0  0  0  0  0  0  0
  2  1  2  0
  1 10  1  0
  2  3  1  0
 15  2  1  0
  3  4  2  0
  6  3  1  6
  4 20  1  0
  5 10  1  1
 12  5  1  1
 17  5  1  1
  7 12  1  1
 16  7  1  1
  8 11  2  0
  8 15  1  0
 11  9  1  0
  9 18  2  0
 10 20  1  0
 20 13  2  0
 15 14  2  0
 14 18  1  0
 16 19  1  0
 19 17  1  6
M  CHG  1  16   1
M  END
$$$$
