
     RDKit          3D

 20 22  0  0  0  0  0  0  0  0999 V2000
   -4.5483    5.5169  -21.1049 N   0  0  0  0  0  0  0  0  0  0  0  0
   -4.5865    6.4482  -20.1354 C   0  0  0  0  0  0  0  0  0  0  0  0
   -4.0338    6.1548  -18.9084 C   0  0  0  0  0  0  0  0  0  0  0  0
   -3.4637    4.8989  -18.7440 C   0  0  0  0  0  0  0  0  0  0  0  0
   -4.0258    3.3782  -22.0982 C   0  0  1  0  0  0  0  0  0  0  0  0
   -4.0284    7.1378  -17.7849 C   0  0  0  0  0  0  0  0  0  0  0  0
   -5.2490    2.2950  -23.9018 C   0  0  0  0  0  0  0  0  0  0  0  0
   -4.7884    8.5675  -21.4254 C   0  0  0  0  0  0  0  0  0  0  0  0
   -6.3771   10.2836  -20.8915 C   0  0  0  0  0  0  0  0  0  0  0  0
   -4.0179    4.3144  -20.9919 N   0  0  0  0  0  0  0  0  0  0  0  0
   -5.3550    9.7980  -21.6812 C   0  0  0  0  0  0  0  0  0  0  0  0
   -5.3297    3.3929  -22.8591 C   0  0  0  0  0  0  0  0  0  0  0  0
   -2.9642    2.8684  -19.6761 O   0  0  0  0  0  0  0  0  0  0  0  0
   -6.2245    8.2400  -19.5876 C   0  0  0  0  0  0  0  0  0  0  0  0
   -5.2058    7.7692  -20.3837 C   0  0  0  0  0  0  0  0  0  0  0  0
   -4.0656    2.3900  -24.7046 N   0  0  0  0  0  4  0  0  0  0  0  0
   -2.8431    3.5545  -23.0170 C   0  0  0  0  0  0  0  0  0  0  0  0
   -6.8012    9.4898  -19.8458 C   0  0  0  0  0  0  0  0  0  0  0  0
   -3.3481    3.6430  -24.4476 C   0  0  0  0  0  0  0  0  0  0  0  0
   -3.4717    4.0080  -19.7973 C   0  0  0  0  0  0  0  0  0  0  0  0
  2  1  2  0
  1 10  1  0
  2  3  1  0
 15  2  1  0
  3  4  2  0
  3  6  1  0
  4 20  1  0
  5 10  1  1
  5 12  1  0
  5 17  1  0
 12  7  1  0
  7 16  1  0
  8 11  2  0
  8 15  1  0
 11  9  1  0
  9 18  2  0
 10 20  1  0
 20 13  2  0
 15 14  2  0
 14 18  1  0
 16 19  1  0
 17 19  1  0
M  CHG  1  16   1
M  END
$$$$
