
     RDKit          3D

 20 22  0  0  0  0  0  0  0  0999 V2000
   -3.4393    7.2289  -21.3547 N   0  0  0  0  0  0  0  0  0  0  0  0
   -3.6271    7.3367  -20.0274 C   0  0  0  0  0  0  0  0  0  0  0  0
   -2.5337    7.5392  -19.2147 C   0  0  0  0  0  0  0  0  0  0  0  0
   -1.2873    7.6205  -19.8224 C   0  0  0  0  0  0  0  0  0  0  0  0
   -2.1759    7.1717  -23.4124 C   0  0  1  0  0  0  0  0  0  0  0  0
   -2.6605    7.6779  -17.7337 C   0  0  0  0  0  0  0  0  0  0  0  0
   -3.1637    6.4379  -25.5119 C   0  0  0  0  0  0  0  0  0  0  0  0
   -5.5031    8.2649  -18.6800 C   0  0  0  0  0  0  0  0  0  0  0  0
   -7.5783    7.1089  -18.3469 C   0  0  0  0  0  0  0  0  0  0  0  0
   -2.2758    7.3001  -21.9723 N   0  0  0  0  0  0  0  0  0  0  0  0
   -6.7690    8.2066  -18.1372 C   0  0  0  0  0  0  0  0  0  0  0  0
   -3.4424    6.6350  -24.0346 C   0  0  0  0  0  0  0  0  0  0  0  0
   -0.0806    7.5674  -21.7671 O   0  0  0  0  0  0  0  0  0  0  0  0
   -5.7819    6.1447  -19.6671 C   0  0  0  0  0  0  0  0  0  0  0  0
   -4.9863    7.2459  -19.4490 C   0  0  0  0  0  0  0  0  0  0  0  0
   -2.6248    7.6143  -26.1279 N   0  0  0  0  0  4  0  0  0  0  0  0
   -1.7249    8.4467  -24.0795 C   0  0  0  0  0  0  0  0  0  0  0  0
   -7.0681    6.0837  -19.1164 C   0  0  0  0  0  0  0  0  0  0  0  0
   -2.6801    8.7634  -25.2183 C   0  0  0  0  0  0  0  0  0  0  0  0
   -1.1927    7.4979  -21.1932 C   0  0  0  0  0  0  0  0  0  0  0  0
  2  1  2  0
  1 10  1  0
  2  3  1  0
 15  2  1  0
  3  4  2  0
  3  6  1  0
  4 20  1  0
  5 10  1  1
  5 12  1  0
  5 17  1  0
 12  7  1  0
  7 16  1  0
  8 11  2  0
  8 15  1  0
 11  9  1  0
  9 18  2  0
 10 20  1  0
 20 13  2  0
 15 14  2  0
 14 18  1  0
 16 19  1  0
 17 19  1  0
M  CHG  1  16   1
M  END
$$$$
