
     RDKit          3D

 20 22  0  0  0  0  0  0  0  0999 V2000
   -4.3822    6.0379  -21.0015 N   0  0  0  0  0  0  0  0  0  0  0  0
   -4.3474    6.8882  -19.9327 C   0  0  0  0  0  0  0  0  0  0  0  0
   -5.2233    6.7002  -18.9122 C   0  0  0  0  0  0  0  0  0  0  0  0
   -6.1306    5.6416  -18.9937 C   0  0  0  0  0  0  0  0  0  0  0  0
   -5.1732    4.1933  -22.2851 C   0  0  1  0  0  0  0  0  0  0  0  0
   -5.2198    7.5770  -17.7344 C   0  0  0  0  0  0  0  0  0  0  0  0
   -5.5707    4.3712  -24.7193 C   0  0  0  0  0  0  0  0  0  0  0  0
   -3.7373    9.2588  -20.2038 C   0  0  0  0  0  0  0  0  0  0  0  0
   -1.4583    9.9477  -19.9346 C   0  0  0  0  0  0  0  0  0  0  0  0
   -5.2234    5.0308  -21.1103 N   0  0  0  0  0  0  0  0  0  0  0  0
   -2.7841   10.2292  -20.1931 C   0  0  0  0  0  0  0  0  0  0  0  0
   -6.1479    4.6123  -23.3523 C   0  0  0  0  0  0  0  0  0  0  0  0
   -6.9122    3.8901  -20.1694 O   0  0  0  0  0  0  0  0  0  0  0  0
   -2.0473    7.6417  -19.6863 C   0  0  0  0  0  0  0  0  0  0  0  0
   -3.3586    7.9501  -19.9466 C   0  0  0  0  0  0  0  0  0  0  0  0
   -4.7557    3.1802  -24.7897 N   0  0  0  0  0  4  0  0  0  0  0  0
   -3.7821    4.3082  -22.8754 C   0  0  0  0  0  0  0  0  0  0  0  0
   -1.0839    8.6491  -19.6795 C   0  0  0  0  0  0  0  0  0  0  0  0
   -3.6608    3.1679  -23.8749 C   0  0  0  0  0  0  0  0  0  0  0  0
   -6.0983    4.8305  -20.1086 C   0  0  0  0  0  0  0  0  0  0  0  0
  2  1  2  0
  1 10  1  0
  2  3  1  0
 15  2  1  0
  3  4  2  0
  6  3  1  6
  4 20  1  0
  5 10  1  1
 12  5  1  1
 17  5  1  1
  7 12  1  1
 16  7  1  1
  8 11  2  0
  8 15  1  0
 11  9  1  0
  9 18  2  0
 10 20  1  0
 20 13  2  0
 15 14  2  0
 14 18  1  0
 16 19  1  0
 19 17  1  6
M  CHG  1  16   1
M  END
$$$$
