
     RDKit          3D

 20 22  0  0  0  0  0  0  0  0999 V2000
   -3.7889    7.0601  -20.4516 N   0  0  0  0  0  0  0  0  0  0  0  0
   -3.8237    7.4577  -19.1450 C   0  0  0  0  0  0  0  0  0  0  0  0
   -2.8228    8.2415  -18.6679 C   0  0  0  0  0  0  0  0  0  0  0  0
   -1.7913    8.6128  -19.5332 C   0  0  0  0  0  0  0  0  0  0  0  0
   -2.8951    6.9153  -22.6553 C   0  0  1  0  0  0  0  0  0  0  0  0
   -2.8183    8.7075  -17.2754 C   0  0  0  0  0  0  0  0  0  0  0  0
   -2.8623    4.7686  -23.8822 C   0  0  0  0  0  0  0  0  0  0  0  0
   -6.2399    7.1016  -18.8285 C   0  0  0  0  0  0  0  0  0  0  0  0
   -7.0536    6.1538  -16.7838 C   0  0  0  0  0  0  0  0  0  0  0  0
   -2.8327    7.3916  -21.2939 N   0  0  0  0  0  0  0  0  0  0  0  0
   -7.2652    6.6683  -18.0465 C   0  0  0  0  0  0  0  0  0  0  0  0
   -2.1578    5.6201  -22.8632 C   0  0  0  0  0  0  0  0  0  0  0  0
   -0.9077    8.5052  -21.5992 O   0  0  0  0  0  0  0  0  0  0  0  0
   -4.7070    6.5138  -17.0840 C   0  0  0  0  0  0  0  0  0  0  0  0
   -4.9464    7.0212  -18.3360 C   0  0  0  0  0  0  0  0  0  0  0  0
   -3.4635    5.5379  -24.9472 N   0  0  0  0  0  4  0  0  0  0  0  0
   -4.3516    6.6633  -22.9903 C   0  0  0  0  0  0  0  0  0  0  0  0
   -5.7699    6.0745  -16.2965 C   0  0  0  0  0  0  0  0  0  0  0  0
   -4.4081    6.5104  -24.5028 C   0  0  0  0  0  0  0  0  0  0  0  0
   -1.8332    8.1673  -20.8377 C   0  0  0  0  0  0  0  0  0  0  0  0
  2  1  2  0
  1 10  1  0
  2  3  1  0
 15  2  1  0
  3  4  2  0
  6  3  1  6
  4 20  1  0
  5 10  1  1
 12  5  1  1
 17  5  1  1
  7 12  1  1
 16  7  1  1
  8 11  2  0
  8 15  1  0
 11  9  1  0
  9 18  2  0
 10 20  1  0
 20 13  2  0
 15 14  2  0
 14 18  1  0
 16 19  1  0
 19 17  1  6
M  CHG  1  16   1
M  END
$$$$
