
     RDKit          3D

 20 22  0  0  0  0  0  0  0  0999 V2000
   -4.5356    6.0765  -20.8013 N   0  0  0  0  0  0  0  0  0  0  0  0
   -4.2357    6.8969  -19.7787 C   0  0  0  0  0  0  0  0  0  0  0  0
   -4.5507    6.5049  -18.4965 C   0  0  0  0  0  0  0  0  0  0  0  0
   -5.1671    5.2707  -18.3348 C   0  0  0  0  0  0  0  0  0  0  0  0
   -5.4017    4.0852  -21.8587 C   0  0  1  0  0  0  0  0  0  0  0  0
   -4.2424    7.3547  -17.3085 C   0  0  0  0  0  0  0  0  0  0  0  0
   -6.4248    3.8797  -24.0572 C   0  0  0  0  0  0  0  0  0  0  0  0
   -2.4372    8.2817  -20.8006 C   0  0  0  0  0  0  0  0  0  0  0  0
   -2.2950   10.6604  -20.5258 C   0  0  0  0  0  0  0  0  0  0  0  0
   -5.1193    4.8985  -20.6929 N   0  0  0  0  0  0  0  0  0  0  0  0
   -1.8062    9.4816  -21.0507 C   0  0  0  0  0  0  0  0  0  0  0  0
   -6.0810    4.8659  -22.9580 C   0  0  0  0  0  0  0  0  0  0  0  0
   -5.9913    3.3795  -19.3273 O   0  0  0  0  0  0  0  0  0  0  0  0
   -4.0717    9.3640  -19.4951 C   0  0  0  0  0  0  0  0  0  0  0  0
   -3.5723    8.1966  -20.0252 C   0  0  0  0  0  0  0  0  0  0  0  0
   -5.2939    3.0989  -24.4639 N   0  0  0  0  0  4  0  0  0  0  0  0
   -4.1841    3.3541  -22.3658 C   0  0  0  0  0  0  0  0  0  0  0  0
   -3.4319   10.5838  -19.7480 C   0  0  0  0  0  0  0  0  0  0  0  0
   -4.0558    3.6019  -23.8597 C   0  0  0  0  0  0  0  0  0  0  0  0
   -5.4359    4.4971  -19.4448 C   0  0  0  0  0  0  0  0  0  0  0  0
  2  1  2  0
  1 10  1  0
  2  3  1  0
 15  2  1  0
  3  4  2  0
  3  6  1  0
  4 20  1  0
  5 10  1  1
  5 12  1  0
  5 17  1  0
 12  7  1  0
  7 16  1  0
  8 11  2  0
  8 15  1  0
 11  9  1  0
  9 18  2  0
 10 20  1  0
 20 13  2  0
 15 14  2  0
 14 18  1  0
 16 19  1  0
 17 19  1  0
M  CHG  1  16   1
M  END
$$$$
