
     RDKit          3D

 20 22  0  0  0  0  0  0  0  0999 V2000
   -3.7724    6.7416  -20.9099 N   0  0  0  0  0  0  0  0  0  0  0  0
   -4.0025    7.1063  -19.6360 C   0  0  0  0  0  0  0  0  0  0  0  0
   -3.0476    7.8440  -18.9720 C   0  0  0  0  0  0  0  0  0  0  0  0
   -1.8899    8.1706  -19.6665 C   0  0  0  0  0  0  0  0  0  0  0  0
   -2.5340    6.5903  -22.9780 C   0  0  1  0  0  0  0  0  0  0  0  0
   -3.2323    8.2945  -17.5608 C   0  0  0  0  0  0  0  0  0  0  0  0
   -2.9125    4.8882  -24.6757 C   0  0  0  0  0  0  0  0  0  0  0  0
   -6.2612    7.6515  -18.7429 C   0  0  0  0  0  0  0  0  0  0  0  0
   -7.6826    6.0319  -17.6891 C   0  0  0  0  0  0  0  0  0  0  0  0
   -2.6894    7.0299  -21.6058 N   0  0  0  0  0  0  0  0  0  0  0  0
   -7.4470    7.3206  -18.1225 C   0  0  0  0  0  0  0  0  0  0  0  0
   -3.2533    5.2920  -23.2545 C   0  0  0  0  0  0  0  0  0  0  0  0
   -0.7078    8.0326  -21.6222 O   0  0  0  0  0  0  0  0  0  0  0  0
   -5.4840    5.4380  -18.5334 C   0  0  0  0  0  0  0  0  0  0  0  0
   -5.2633    6.7274  -18.9600 C   0  0  0  0  0  0  0  0  0  0  0  0
   -3.1574    5.9413  -25.6165 N   0  0  0  0  0  4  0  0  0  0  0  0
   -2.9078    7.6573  -23.9758 C   0  0  0  0  0  0  0  0  0  0  0  0
   -6.6880    5.1001  -17.9029 C   0  0  0  0  0  0  0  0  0  0  0  0
   -3.8696    7.0593  -24.9892 C   0  0  0  0  0  0  0  0  0  0  0  0
   -1.7423    7.7517  -20.9725 C   0  0  0  0  0  0  0  0  0  0  0  0
  2  1  2  0
  1 10  1  0
  2  3  1  0
 15  2  1  0
  3  4  2  0
  3  6  1  0
  4 20  1  0
  5 10  1  1
  5 12  1  0
  5 17  1  0
 12  7  1  0
  7 16  1  0
  8 11  2  0
  8 15  1  0
 11  9  1  0
  9 18  2  0
 10 20  1  0
 20 13  2  0
 15 14  2  0
 14 18  1  0
 16 19  1  0
 17 19  1  0
M  CHG  1  16   1
M  END
$$$$
