
     RDKit          3D

 20 22  0  0  0  0  0  0  0  0999 V2000
   -4.0380    6.5776  -20.2370 N   0  0  0  0  0  0  0  0  0  0  0  0
   -4.0906    7.0209  -18.9684 C   0  0  0  0  0  0  0  0  0  0  0  0
   -3.0526    7.7880  -18.4877 C   0  0  0  0  0  0  0  0  0  0  0  0
   -2.0005    8.0605  -19.3528 C   0  0  0  0  0  0  0  0  0  0  0  0
   -3.0952    6.2890  -22.4418 C   0  0  1  0  0  0  0  0  0  0  0  0
   -3.0413    8.3249  -17.0948 C   0  0  0  0  0  0  0  0  0  0  0  0
   -3.6134    4.4518  -23.9513 C   0  0  0  0  0  0  0  0  0  0  0  0
   -5.9872    7.6889  -17.5009 C   0  0  0  0  0  0  0  0  0  0  0  0
   -7.4659    6.1093  -16.4655 C   0  0  0  0  0  0  0  0  0  0  0  0
   -3.0603    6.8124  -21.0909 N   0  0  0  0  0  0  0  0  0  0  0  0
   -7.0732    7.4114  -16.6983 C   0  0  0  0  0  0  0  0  0  0  0  0
   -3.7504    4.9310  -22.5194 C   0  0  0  0  0  0  0  0  0  0  0  0
   -1.0981    7.7926  -21.4396 O   0  0  0  0  0  0  0  0  0  0  0  0
   -5.6272    5.3926  -17.8815 C   0  0  0  0  0  0  0  0  0  0  0  0
   -5.2474    6.6962  -18.1042 C   0  0  0  0  0  0  0  0  0  0  0  0
   -4.0846    5.4187  -24.8984 N   0  0  0  0  0  4  0  0  0  0  0  0
   -3.7035    7.2575  -23.4246 C   0  0  0  0  0  0  0  0  0  0  0  0
   -6.7301    5.1089  -17.0664 C   0  0  0  0  0  0  0  0  0  0  0  0
   -4.7684    6.5296  -24.2283 C   0  0  0  0  0  0  0  0  0  0  0  0
   -2.0341    7.5618  -20.6386 C   0  0  0  0  0  0  0  0  0  0  0  0
  2  1  2  0
  1 10  1  0
  2  3  1  0
 15  2  1  0
  3  4  2  0
  3  6  1  0
  4 20  1  0
  5 10  1  1
  5 12  1  0
  5 17  1  0
 12  7  1  0
  7 16  1  0
  8 11  2  0
  8 15  1  0
 11  9  1  0
  9 18  2  0
 10 20  1  0
 20 13  2  0
 15 14  2  0
 14 18  1  0
 16 19  1  0
 17 19  1  0
M  CHG  1  16   1
M  END
$$$$
