
     RDKit          3D

 20 22  0  0  0  0  0  0  0  0999 V2000
   -4.7983    6.3434  -20.6735 N   0  0  0  0  0  0  0  0  0  0  0  0
   -4.3710    6.7748  -19.4735 C   0  0  0  0  0  0  0  0  0  0  0  0
   -4.9135    6.2209  -18.3352 C   0  0  0  0  0  0  0  0  0  0  0  0
   -5.8817    5.2381  -18.4971 C   0  0  0  0  0  0  0  0  0  0  0  0
   -6.1078    5.0164  -22.2090 C   0  0  1  0  0  0  0  0  0  0  0  0
   -4.4858    6.6393  -16.9675 C   0  0  0  0  0  0  0  0  0  0  0  0
   -6.7441    5.6539  -24.4698 C   0  0  0  0  0  0  0  0  0  0  0  0
   -2.1636    7.7377  -20.1034 C   0  0  0  0  0  0  0  0  0  0  0  0
   -1.3363    9.8107  -19.2247 C   0  0  0  0  0  0  0  0  0  0  0  0
   -5.7135    5.4144  -20.8725 N   0  0  0  0  0  0  0  0  0  0  0  0
   -1.1834    8.7047  -20.0355 C   0  0  0  0  0  0  0  0  0  0  0  0
   -6.2125    6.1888  -23.1545 C   0  0  0  0  0  0  0  0  0  0  0  0
   -7.1281    3.9758  -19.9442 O   0  0  0  0  0  0  0  0  0  0  0  0
   -3.4971    8.9200  -18.5635 C   0  0  0  0  0  0  0  0  0  0  0  0
   -3.3303    7.8226  -19.3765 C   0  0  0  0  0  0  0  0  0  0  0  0
   -5.9850    4.5384  -24.9527 N   0  0  0  0  0  4  0  0  0  0  0  0
   -5.2338    3.9240  -22.7716 C   0  0  0  0  0  0  0  0  0  0  0  0
   -2.5024    9.9033  -18.4932 C   0  0  0  0  0  0  0  0  0  0  0  0
   -4.7688    4.3391  -24.1576 C   0  0  0  0  0  0  0  0  0  0  0  0
   -6.2570    4.8600  -19.7696 C   0  0  0  0  0  0  0  0  0  0  0  0
  2  1  2  0
  1 10  1  0
  2  3  1  0
 15  2  1  0
  3  4  2  0
  3  6  1  0
  4 20  1  0
  5 10  1  1
  5 12  1  0
  5 17  1  0
 12  7  1  0
  7 16  1  0
  8 11  2  0
  8 15  1  0
 11  9  1  0
  9 18  2  0
 10 20  1  0
 20 13  2  0
 15 14  2  0
 14 18  1  0
 16 19  1  0
 17 19  1  0
M  CHG  1  16   1
M  END
$$$$
