
     RDKit          3D

 20 22  0  0  0  0  0  0  0  0999 V2000
   -4.6484    5.7607  -21.3847 N   0  0  0  0  0  0  0  0  0  0  0  0
   -4.7830    6.1780  -20.0908 C   0  0  0  0  0  0  0  0  0  0  0  0
   -4.6629    5.2690  -19.0892 C   0  0  0  0  0  0  0  0  0  0  0  0
   -4.4060    3.9367  -19.4201 C   0  0  0  0  0  0  0  0  0  0  0  0
   -4.2820    4.1822  -23.1311 C   0  0  1  0  0  0  0  0  0  0  0  0
   -4.7858    5.6666  -17.6810 C   0  0  0  0  0  0  0  0  0  0  0  0
   -5.6856    4.1334  -25.1664 C   0  0  0  0  0  0  0  0  0  0  0  0
   -6.1779    8.1873  -20.3782 C   0  0  0  0  0  0  0  0  0  0  0  0
   -5.5156   10.2593  -19.3736 C   0  0  0  0  0  0  0  0  0  0  0  0
   -4.4060    4.5138  -21.7316 N   0  0  0  0  0  0  0  0  0  0  0  0
   -6.3932    9.5067  -20.1268 C   0  0  0  0  0  0  0  0  0  0  0  0
   -5.5662    3.6838  -23.7369 C   0  0  0  0  0  0  0  0  0  0  0  0
   -4.0554    2.4092  -21.0341 O   0  0  0  0  0  0  0  0  0  0  0  0
   -4.1514    8.3115  -19.1066 C   0  0  0  0  0  0  0  0  0  0  0  0
   -5.0409    7.5871  -19.8592 C   0  0  0  0  0  0  0  0  0  0  0  0
   -4.4191    4.1591  -25.8614 N   0  0  0  0  0  4  0  0  0  0  0  0
   -3.8947    5.4458  -23.8729 C   0  0  0  0  0  0  0  0  0  0  0  0
   -4.3882    9.6627  -18.8592 C   0  0  0  0  0  0  0  0  0  0  0  0
   -3.4356    4.9930  -25.2506 C   0  0  0  0  0  0  0  0  0  0  0  0
   -4.2845    3.6003  -20.7520 C   0  0  0  0  0  0  0  0  0  0  0  0
  2  1  2  0
  1 10  1  0
  2  3  1  0
 15  2  1  0
  3  4  2  0
  6  3  1  6
  4 20  1  0
  5 10  1  1
 12  5  1  1
 17  5  1  1
  7 12  1  1
 16  7  1  1
  8 11  2  0
  8 15  1  0
 11  9  1  0
  9 18  2  0
 10 20  1  0
 20 13  2  0
 15 14  2  0
 14 18  1  0
 16 19  1  0
 19 17  1  6
M  CHG  1  16   1
M  END
$$$$
