
     RDKit          3D

 20 22  0  0  0  0  0  0  0  0999 V2000
   -3.4174    7.3957  -20.9963 N   0  0  0  0  0  0  0  0  0  0  0  0
   -4.0035    7.4544  -19.7635 C   0  0  0  0  0  0  0  0  0  0  0  0
   -3.2297    7.7110  -18.6775 C   0  0  0  0  0  0  0  0  0  0  0  0
   -1.8590    7.9055  -18.8616 C   0  0  0  0  0  0  0  0  0  0  0  0
   -1.6152    7.4902  -22.5515 C   0  0  1  0  0  0  0  0  0  0  0  0
   -3.8108    7.7978  -17.3318 C   0  0  0  0  0  0  0  0  0  0  0  0
   -1.4673    5.8443  -24.3912 C   0  0  0  0  0  0  0  0  0  0  0  0
   -6.3037    8.0476  -20.4133 C   0  0  0  0  0  0  0  0  0  0  0  0
   -8.1544    6.8000  -19.5421 C   0  0  0  0  0  0  0  0  0  0  0  0
   -2.1298    7.5741  -21.2053 N   0  0  0  0  0  0  0  0  0  0  0  0
   -7.6405    7.8111  -20.3277 C   0  0  0  0  0  0  0  0  0  0  0  0
   -1.1886    6.0993  -22.9361 C   0  0  0  0  0  0  0  0  0  0  0  0
   -0.1251    8.0041  -20.2915 O   0  0  0  0  0  0  0  0  0  0  0  0
   -5.9208    6.2324  -18.8977 C   0  0  0  0  0  0  0  0  0  0  0  0
   -5.4373    7.2452  -19.6869 C   0  0  0  0  0  0  0  0  0  0  0  0
   -1.2681    7.0106  -25.2205 N   0  0  0  0  0  4  0  0  0  0  0  0
   -2.7269    7.8980  -23.4974 C   0  0  0  0  0  0  0  0  0  0  0  0
   -7.2939    6.0046  -18.8220 C   0  0  0  0  0  0  0  0  0  0  0  0
   -2.0590    8.1365  -24.8432 C   0  0  0  0  0  0  0  0  0  0  0  0
   -1.3486    7.8289  -20.1405 C   0  0  0  0  0  0  0  0  0  0  0  0
  2  1  2  0
  1 10  1  0
  2  3  1  0
 15  2  1  0
  3  4  2  0
  6  3  1  6
  4 20  1  0
  5 10  1  1
 12  5  1  1
 17  5  1  1
  7 12  1  1
 16  7  1  1
  8 11  2  0
  8 15  1  0
 11  9  1  0
  9 18  2  0
 10 20  1  0
 20 13  2  0
 15 14  2  0
 14 18  1  0
 16 19  1  0
 19 17  1  6
M  CHG  1  16   1
M  END
$$$$
