
     RDKit          3D

 20 22  0  0  0  0  0  0  0  0999 V2000
   -4.5216    5.9191  -20.7174 N   0  0  0  0  0  0  0  0  0  0  0  0
   -4.5193    6.7316  -19.6190 C   0  0  0  0  0  0  0  0  0  0  0  0
   -5.2284    6.3593  -18.5224 C   0  0  0  0  0  0  0  0  0  0  0  0
   -5.9364    5.1561  -18.5584 C   0  0  0  0  0  0  0  0  0  0  0  0
   -5.1106    3.9978  -21.9970 C   0  0  1  0  0  0  0  0  0  0  0  0
   -5.2492    7.1891  -17.3112 C   0  0  0  0  0  0  0  0  0  0  0  0
   -5.7741    4.1813  -24.3720 C   0  0  0  0  0  0  0  0  0  0  0  0
   -2.3623    7.9188  -19.5632 C   0  0  0  0  0  0  0  0  0  0  0  0
   -2.2956   10.2967  -19.8497 C   0  0  0  0  0  0  0  0  0  0  0  0
   -5.1773    4.7793  -20.7850 N   0  0  0  0  0  0  0  0  0  0  0  0
   -1.6673    9.0851  -19.6469 C   0  0  0  0  0  0  0  0  0  0  0  0
   -6.2424    4.2819  -22.9471 C   0  0  0  0  0  0  0  0  0  0  0  0
   -6.5207    3.3249  -19.7273 O   0  0  0  0  0  0  0  0  0  0  0  0
   -4.3936    9.1463  -19.8886 C   0  0  0  0  0  0  0  0  0  0  0  0
   -3.7428    7.9556  -19.6862 C   0  0  0  0  0  0  0  0  0  0  0  0
   -4.7885    3.1444  -24.5741 N   0  0  0  0  0  4  0  0  0  0  0  0
   -3.8228    4.3592  -22.7096 C   0  0  0  0  0  0  0  0  0  0  0  0
   -3.6651   10.3318  -19.9717 C   0  0  0  0  0  0  0  0  0  0  0  0
   -3.6197    3.2856  -23.7680 C   0  0  0  0  0  0  0  0  0  0  0  0
   -5.8851    4.3955  -19.7077 C   0  0  0  0  0  0  0  0  0  0  0  0
  2  1  2  0
  1 10  1  0
  2  3  1  0
 15  2  1  0
  3  4  2  0
  6  3  1  6
  4 20  1  0
  5 10  1  1
 12  5  1  1
 17  5  1  1
  7 12  1  1
 16  7  1  1
  8 11  2  0
  8 15  1  0
 11  9  1  0
  9 18  2  0
 10 20  1  0
 20 13  2  0
 15 14  2  0
 14 18  1  0
 16 19  1  0
 19 17  1  6
M  CHG  1  16   1
M  END
$$$$
