
     RDKit          3D

 20 22  0  0  0  0  0  0  0  0999 V2000
    4.2227    3.0099  -13.1593 N   0  0  0  0  0  0  0  0  0  0  0  0
    4.0555    3.6273  -11.9763 C   0  0  0  0  0  0  0  0  0  0  0  0
    4.3308    2.9337  -10.8187 C   0  0  0  0  0  0  0  0  0  0  0  0
    4.7697    1.6218  -10.9444 C   0  0  0  0  0  0  0  0  0  0  0  0
    4.7858    1.1905  -14.6447 C   0  0  1  0  0  0  0  0  0  0  0  0
    4.1790    3.5515   -9.4682 C   0  0  0  0  0  0  0  0  0  0  0  0
    3.8614    0.7910  -16.8602 C   0  0  0  0  0  0  0  0  0  0  0  0
    4.1793    6.0098  -12.6871 C   0  0  0  0  0  0  0  0  0  0  0  0
    2.7143    7.7103  -11.8411 C   0  0  0  0  0  0  0  0  0  0  0  0
    4.6366    1.7682  -13.3240 N   0  0  0  0  0  0  0  0  0  0  0  0
    3.7580    7.3220  -12.6559 C   0  0  0  0  0  0  0  0  0  0  0  0
    3.6446    1.5498  -15.5655 C   0  0  0  0  0  0  0  0  0  0  0  0
    5.3054   -0.1091  -12.3437 O   0  0  0  0  0  0  0  0  0  0  0  0
    2.5474    5.4030  -11.1008 C   0  0  0  0  0  0  0  0  0  0  0  0
    3.5898    5.0309  -11.9183 C   0  0  0  0  0  0  0  0  0  0  0  0
    5.1744    0.9923  -17.3981 N   0  0  0  0  0  4  0  0  0  0  0  0
    6.1231    1.5025  -15.2677 C   0  0  0  0  0  0  0  0  0  0  0  0
    2.1182    6.7356  -11.0677 C   0  0  0  0  0  0  0  0  0  0  0  0
    5.8920    2.0432  -16.6690 C   0  0  0  0  0  0  0  0  0  0  0  0
    4.9112    1.0723  -12.2018 C   0  0  0  0  0  0  0  0  0  0  0  0
  2  1  2  0
  1 10  1  0
  2  3  1  0
 15  2  1  0
  3  4  2  0
  3  6  1  0
  4 20  1  0
  5 10  1  1
  5 12  1  0
  5 17  1  0
 12  7  1  0
  7 16  1  0
  8 11  2  0
  8 15  1  0
 11  9  1  0
  9 18  2  0
 10 20  1  0
 20 13  2  0
 15 14  2  0
 14 18  1  0
 16 19  1  0
 17 19  1  0
M  CHG  1  16   1
M  END
$$$$
