
     RDKit          3D

 20 22  0  0  0  0  0  0  0  0999 V2000
   -4.0944    7.0569  -20.5844 N   0  0  0  0  0  0  0  0  0  0  0  0
   -4.0299    7.3842  -19.2595 C   0  0  0  0  0  0  0  0  0  0  0  0
   -3.0176    8.1783  -18.8254 C   0  0  0  0  0  0  0  0  0  0  0  0
   -2.0765    8.6320  -19.7522 C   0  0  0  0  0  0  0  0  0  0  0  0
   -3.3883    7.0605  -22.8598 C   0  0  1  0  0  0  0  0  0  0  0  0
   -2.9090    8.5707  -17.4146 C   0  0  0  0  0  0  0  0  0  0  0  0
   -3.2680    4.9997  -24.2212 C   0  0  0  0  0  0  0  0  0  0  0  0
   -6.4031    7.0740  -18.6791 C   0  0  0  0  0  0  0  0  0  0  0  0
   -7.0050    5.8375  -16.7170 C   0  0  0  0  0  0  0  0  0  0  0  0
   -3.2250    7.4670  -21.4842 N   0  0  0  0  0  0  0  0  0  0  0  0
   -7.3445    6.5585  -17.8433 C   0  0  0  0  0  0  0  0  0  0  0  0
   -2.5474    5.8682  -23.2281 C   0  0  0  0  0  0  0  0  0  0  0  0
   -1.3701    8.6651  -21.8878 O   0  0  0  0  0  0  0  0  0  0  0  0
   -4.6984    6.1515  -17.2714 C   0  0  0  0  0  0  0  0  0  0  0  0
   -5.0646    6.8649  -18.3846 C   0  0  0  0  0  0  0  0  0  0  0  0
   -4.0611    5.7536  -25.1647 N   0  0  0  0  0  4  0  0  0  0  0  0
   -4.8386    6.6668  -23.0561 C   0  0  0  0  0  0  0  0  0  0  0  0
   -5.6768    5.6307  -16.4261 C   0  0  0  0  0  0  0  0  0  0  0  0
   -5.0468    6.5900  -24.5610 C   0  0  0  0  0  0  0  0  0  0  0  0
   -2.2156    8.2541  -21.0712 C   0  0  0  0  0  0  0  0  0  0  0  0
  2  1  2  0
  1 10  1  0
  2  3  1  0
 15  2  1  0
  3  4  2  0
  6  3  1  6
  4 20  1  0
  5 10  1  1
 12  5  1  1
 17  5  1  1
  7 12  1  1
 16  7  1  1
  8 11  2  0
  8 15  1  0
 11  9  1  0
  9 18  2  0
 10 20  1  0
 20 13  2  0
 15 14  2  0
 14 18  1  0
 16 19  1  0
 19 17  1  6
M  CHG  1  16   1
M  END
$$$$
