
     RDKit          3D

 20 22  0  0  0  0  0  0  0  0999 V2000
   -3.4034    7.2797  -21.0398 N   0  0  0  0  0  0  0  0  0  0  0  0
   -3.7916    7.2928  -19.7523 C   0  0  0  0  0  0  0  0  0  0  0  0
   -2.9158    7.7602  -18.7977 C   0  0  0  0  0  0  0  0  0  0  0  0
   -1.6684    8.1947  -19.2275 C   0  0  0  0  0  0  0  0  0  0  0  0
   -1.9054    7.6288  -22.9020 C   0  0  1  0  0  0  0  0  0  0  0  0
   -3.2752    7.8151  -17.3498 C   0  0  0  0  0  0  0  0  0  0  0  0
   -1.9039    6.3850  -24.9938 C   0  0  0  0  0  0  0  0  0  0  0  0
   -5.3137    5.9297  -18.3303 C   0  0  0  0  0  0  0  0  0  0  0  0
   -7.6971    5.9116  -18.6000 C   0  0  0  0  0  0  0  0  0  0  0  0
   -2.2310    7.6823  -21.4909 N   0  0  0  0  0  0  0  0  0  0  0  0
   -6.5598    5.4806  -17.9483 C   0  0  0  0  0  0  0  0  0  0  0  0
   -2.4113    6.3703  -23.5651 C   0  0  0  0  0  0  0  0  0  0  0  0
   -0.2409    8.5291  -20.9857 O   0  0  0  0  0  0  0  0  0  0  0  0
   -6.2650    7.2585  -20.0264 C   0  0  0  0  0  0  0  0  0  0  0  0
   -5.1399    6.8194  -19.3672 C   0  0  0  0  0  0  0  0  0  0  0  0
   -2.2172    7.6079  -25.6722 N   0  0  0  0  0  4  0  0  0  0  0  0
   -2.3434    8.8648  -23.6466 C   0  0  0  0  0  0  0  0  0  0  0  0
   -7.5317    6.8031  -19.6398 C   0  0  0  0  0  0  0  0  0  0  0  0
   -3.1272    8.4388  -24.8769 C   0  0  0  0  0  0  0  0  0  0  0  0
   -1.3590    8.1433  -20.5709 C   0  0  0  0  0  0  0  0  0  0  0  0
  2  1  2  0
  1 10  1  0
  2  3  1  0
 15  2  1  0
  3  4  2  0
  3  6  1  0
  4 20  1  0
  5 10  1  1
  5 12  1  0
  5 17  1  0
 12  7  1  0
  7 16  1  0
  8 11  2  0
  8 15  1  0
 11  9  1  0
  9 18  2  0
 10 20  1  0
 20 13  2  0
 15 14  2  0
 14 18  1  0
 16 19  1  0
 17 19  1  0
M  CHG  1  16   1
M  END
$$$$
