
     RDKit          3D

 20 22  0  0  0  0  0  0  0  0999 V2000
   -3.9868    6.8728  -20.1863 N   0  0  0  0  0  0  0  0  0  0  0  0
   -3.9335    6.8918  -18.8426 C   0  0  0  0  0  0  0  0  0  0  0  0
   -2.7509    7.2397  -18.2282 C   0  0  0  0  0  0  0  0  0  0  0  0
   -1.6710    7.5535  -19.0436 C   0  0  0  0  0  0  0  0  0  0  0  0
   -3.1442    7.1140  -22.4370 C   0  0  1  0  0  0  0  0  0  0  0  0
   -2.6141    7.2930  -16.7426 C   0  0  0  0  0  0  0  0  0  0  0  0
   -3.8016    5.8649  -24.4194 C   0  0  0  0  0  0  0  0  0  0  0  0
   -6.3262    6.2370  -18.6364 C   0  0  0  0  0  0  0  0  0  0  0  0
   -7.4136    5.8825  -16.5278 C   0  0  0  0  0  0  0  0  0  0  0  0
   -2.9875    7.1632  -20.9971 N   0  0  0  0  0  0  0  0  0  0  0  0
   -7.4491    5.9090  -17.9070 C   0  0  0  0  0  0  0  0  0  0  0  0
   -3.8092    5.8414  -22.9033 C   0  0  0  0  0  0  0  0  0  0  0  0
   -0.8625    7.7845  -21.1729 O   0  0  0  0  0  0  0  0  0  0  0  0
   -5.0760    6.5287  -16.6617 C   0  0  0  0  0  0  0  0  0  0  0  0
   -5.1269    6.5511  -18.0365 C   0  0  0  0  0  0  0  0  0  0  0  0
   -4.3511    7.0777  -24.9496 N   0  0  0  0  0  4  0  0  0  0  0  0
   -3.8333    8.3366  -22.9886 C   0  0  0  0  0  0  0  0  0  0  0  0
   -6.2158    6.1958  -15.9191 C   0  0  0  0  0  0  0  0  0  0  0  0
   -4.9682    7.8876  -23.8942 C   0  0  0  0  0  0  0  0  0  0  0  0
   -1.8206    7.5062  -20.4141 C   0  0  0  0  0  0  0  0  0  0  0  0
  2  1  2  0
  1 10  1  0
  2  3  1  0
 15  2  1  0
  3  4  2  0
  3  6  1  0
  4 20  1  0
  5 10  1  1
  5 12  1  0
  5 17  1  0
 12  7  1  0
  7 16  1  0
  8 11  2  0
  8 15  1  0
 11  9  1  0
  9 18  2  0
 10 20  1  0
 20 13  2  0
 15 14  2  0
 14 18  1  0
 16 19  1  0
 17 19  1  0
M  CHG  1  16   1
M  END
$$$$
