
     RDKit          3D

 20 22  0  0  0  0  0  0  0  0999 V2000
   -4.6701    6.1568  -20.7110 N   0  0  0  0  0  0  0  0  0  0  0  0
   -4.3928    6.8646  -19.6015 C   0  0  0  0  0  0  0  0  0  0  0  0
   -4.8388    6.3975  -18.3851 C   0  0  0  0  0  0  0  0  0  0  0  0
   -5.5575    5.2088  -18.3773 C   0  0  0  0  0  0  0  0  0  0  0  0
   -5.5955    4.3350  -21.9986 C   0  0  1  0  0  0  0  0  0  0  0  0
   -4.5643    7.1204  -17.1082 C   0  0  0  0  0  0  0  0  0  0  0  0
   -6.2384    4.4375  -24.3435 C   0  0  0  0  0  0  0  0  0  0  0  0
   -2.3439    8.2086  -19.1632 C   0  0  0  0  0  0  0  0  0  0  0  0
   -2.1046   10.4971  -19.8409 C   0  0  0  0  0  0  0  0  0  0  0  0
   -5.3477    5.0257  -20.7489 N   0  0  0  0  0  0  0  0  0  0  0  0
   -1.5979    9.3657  -19.2351 C   0  0  0  0  0  0  0  0  0  0  0  0
   -5.8817    5.2841  -23.1373 C   0  0  0  0  0  0  0  0  0  0  0  0
   -6.4389    3.4777  -19.5888 O   0  0  0  0  0  0  0  0  0  0  0  0
   -4.1344    9.2417  -20.2919 C   0  0  0  0  0  0  0  0  0  0  0  0
   -3.6157    8.1214  -19.6844 C   0  0  0  0  0  0  0  0  0  0  0  0
   -5.2560    3.4296  -24.6133 N   0  0  0  0  0  4  0  0  0  0  0  0
   -4.5013    3.3585  -22.3496 C   0  0  0  0  0  0  0  0  0  0  0  0
   -3.3781   10.4180  -20.3657 C   0  0  0  0  0  0  0  0  0  0  0  0
   -4.0622    3.6149  -23.7817 C   0  0  0  0  0  0  0  0  0  0  0  0
   -5.7933    4.5519  -19.5673 C   0  0  0  0  0  0  0  0  0  0  0  0
  2  1  2  0
  1 10  1  0
  2  3  1  0
 15  2  1  0
  3  4  2  0
  3  6  1  0
  4 20  1  0
  5 10  1  1
  5 12  1  0
  5 17  1  0
 12  7  1  0
  7 16  1  0
  8 11  2  0
  8 15  1  0
 11  9  1  0
  9 18  2  0
 10 20  1  0
 20 13  2  0
 15 14  2  0
 14 18  1  0
 16 19  1  0
 17 19  1  0
M  CHG  1  16   1
M  END
$$$$
