
     RDKit          3D

 20 22  0  0  0  0  0  0  0  0999 V2000
   -3.8357    6.1753  -20.2832 N   0  0  0  0  0  0  0  0  0  0  0  0
   -3.8896    6.8441  -19.1176 C   0  0  0  0  0  0  0  0  0  0  0  0
   -2.9744    7.8461  -18.8823 C   0  0  0  0  0  0  0  0  0  0  0  0
   -2.0390    8.1085  -19.8750 C   0  0  0  0  0  0  0  0  0  0  0  0
   -2.9892    5.6152  -22.4748 C   0  0  1  0  0  0  0  0  0  0  0  0
   -2.9744    8.6400  -17.6180 C   0  0  0  0  0  0  0  0  0  0  0  0
   -3.4748    3.5118  -23.5984 C   0  0  0  0  0  0  0  0  0  0  0  0
   -5.0071    5.2509  -17.5655 C   0  0  0  0  0  0  0  0  0  0  0  0
   -6.8588    5.8600  -16.1675 C   0  0  0  0  0  0  0  0  0  0  0  0
   -2.9661    6.3915  -21.2513 N   0  0  0  0  0  0  0  0  0  0  0  0
   -5.9521    4.9220  -16.6171 C   0  0  0  0  0  0  0  0  0  0  0  0
   -3.6231    4.2579  -22.2868 C   0  0  0  0  0  0  0  0  0  0  0  0
   -1.2288    7.5850  -21.9512 O   0  0  0  0  0  0  0  0  0  0  0  0
   -5.8163    7.4605  -17.6679 C   0  0  0  0  0  0  0  0  0  0  0  0
   -4.9189    6.5143  -18.1067 C   0  0  0  0  0  0  0  0  0  0  0  0
   -3.9584    4.2687  -24.7152 N   0  0  0  0  0  4  0  0  0  0  0  0
   -3.6098    6.3646  -23.6268 C   0  0  0  0  0  0  0  0  0  0  0  0
   -6.7770    7.1281  -16.7047 C   0  0  0  0  0  0  0  0  0  0  0  0
   -4.6611    5.4778  -24.2734 C   0  0  0  0  0  0  0  0  0  0  0  0
   -2.0613    7.3690  -21.0394 C   0  0  0  0  0  0  0  0  0  0  0  0
  2  1  2  0
  1 10  1  0
  2  3  1  0
 15  2  1  0
  3  4  2  0
  3  6  1  0
  4 20  1  0
  5 10  1  1
  5 12  1  0
  5 17  1  0
 12  7  1  0
  7 16  1  0
  8 11  2  0
  8 15  1  0
 11  9  1  0
  9 18  2  0
 10 20  1  0
 20 13  2  0
 15 14  2  0
 14 18  1  0
 16 19  1  0
 17 19  1  0
M  CHG  1  16   1
M  END
$$$$
