
     RDKit          3D

 20 22  0  0  0  0  0  0  0  0999 V2000
   -3.2491    7.0162  -20.9661 N   0  0  0  0  0  0  0  0  0  0  0  0
   -3.6446    7.1519  -19.6879 C   0  0  0  0  0  0  0  0  0  0  0  0
   -2.6894    7.3164  -18.7094 C   0  0  0  0  0  0  0  0  0  0  0  0
   -1.3584    7.3319  -19.1066 C   0  0  0  0  0  0  0  0  0  0  0  0
   -1.6724    6.8712  -22.7900 C   0  0  1  0  0  0  0  0  0  0  0  0
   -3.0483    7.4826  -17.2699 C   0  0  0  0  0  0  0  0  0  0  0  0
   -1.9881    5.6691  -24.8823 C   0  0  0  0  0  0  0  0  0  0  0  0
   -5.5804    6.2327  -18.4213 C   0  0  0  0  0  0  0  0  0  0  0  0
   -7.8140    7.0795  -18.6395 C   0  0  0  0  0  0  0  0  0  0  0  0
   -1.9987    7.0252  -21.3864 N   0  0  0  0  0  0  0  0  0  0  0  0
   -6.9140    6.1998  -18.0737 C   0  0  0  0  0  0  0  0  0  0  0  0
   -2.5086    5.8110  -23.4653 C   0  0  0  0  0  0  0  0  0  0  0  0
    0.1442    7.1952  -20.8283 O   0  0  0  0  0  0  0  0  0  0  0  0
   -5.9680    8.0156  -19.9107 C   0  0  0  0  0  0  0  0  0  0  0  0
   -5.0825    7.1318  -19.3381 C   0  0  0  0  0  0  0  0  0  0  0  0
   -1.9166    6.9264  -25.5665 N   0  0  0  0  0  4  0  0  0  0  0  0
   -1.7148    8.1769  -23.5431 C   0  0  0  0  0  0  0  0  0  0  0  0
   -7.3232    7.9836  -19.5589 C   0  0  0  0  0  0  0  0  0  0  0  0
   -2.5619    7.9909  -24.7910 C   0  0  0  0  0  0  0  0  0  0  0  0
   -1.0484    7.1849  -20.4427 C   0  0  0  0  0  0  0  0  0  0  0  0
  2  1  2  0
  1 10  1  0
  2  3  1  0
 15  2  1  0
  3  4  2  0
  3  6  1  0
  4 20  1  0
  5 10  1  1
  5 12  1  0
  5 17  1  0
 12  7  1  0
  7 16  1  0
  8 11  2  0
  8 15  1  0
 11  9  1  0
  9 18  2  0
 10 20  1  0
 20 13  2  0
 15 14  2  0
 14 18  1  0
 16 19  1  0
 17 19  1  0
M  CHG  1  16   1
M  END
$$$$
