
     RDKit          3D

 20 22  0  0  0  0  0  0  0  0999 V2000
   -3.4141    7.0428  -21.3066 N   0  0  0  0  0  0  0  0  0  0  0  0
   -3.6772    7.0599  -19.9878 C   0  0  0  0  0  0  0  0  0  0  0  0
   -2.6252    7.0459  -19.0990 C   0  0  0  0  0  0  0  0  0  0  0  0
   -1.3399    7.0141  -19.6247 C   0  0  0  0  0  0  0  0  0  0  0  0
   -2.0302    6.9965  -23.2856 C   0  0  1  0  0  0  0  0  0  0  0  0
   -2.8345    7.0724  -17.6211 C   0  0  0  0  0  0  0  0  0  0  0  0
   -2.6177    6.0487  -25.4487 C   0  0  0  0  0  0  0  0  0  0  0  0
   -5.4553    7.9722  -18.5037 C   0  0  0  0  0  0  0  0  0  0  0  0
   -7.7291    7.2101  -18.5570 C   0  0  0  0  0  0  0  0  0  0  0  0
   -2.2114    7.0127  -21.8478 N   0  0  0  0  0  0  0  0  0  0  0  0
   -6.7511    8.0331  -18.0372 C   0  0  0  0  0  0  0  0  0  0  0  0
   -2.9914    6.0615  -23.9793 C   0  0  0  0  0  0  0  0  0  0  0  0
   -0.0193    6.9697  -21.4942 O   0  0  0  0  0  0  0  0  0  0  0  0
   -6.0379    6.2729  -20.0270 C   0  0  0  0  0  0  0  0  0  0  0  0
   -5.0734    7.0998  -19.4987 C   0  0  0  0  0  0  0  0  0  0  0  0
   -2.5330    7.3679  -26.0023 N   0  0  0  0  0  4  0  0  0  0  0  0
   -2.0622    8.3773  -23.8908 C   0  0  0  0  0  0  0  0  0  0  0  0
   -7.3547    6.3333  -19.5541 C   0  0  0  0  0  0  0  0  0  0  0  0
   -3.0339    8.3732  -25.0593 C   0  0  0  0  0  0  0  0  0  0  0  0
   -1.1679    6.9983  -20.9934 C   0  0  0  0  0  0  0  0  0  0  0  0
  2  1  2  0
  1 10  1  0
  2  3  1  0
 15  2  1  0
  3  4  2  0
  3  6  1  0
  4 20  1  0
  5 10  1  1
  5 12  1  0
  5 17  1  0
 12  7  1  0
  7 16  1  0
  8 11  2  0
  8 15  1  0
 11  9  1  0
  9 18  2  0
 10 20  1  0
 20 13  2  0
 15 14  2  0
 14 18  1  0
 16 19  1  0
 17 19  1  0
M  CHG  1  16   1
M  END
$$$$
