
     RDKit          3D

 20 22  0  0  0  0  0  0  0  0999 V2000
   -3.5830    7.2531  -20.9484 N   0  0  0  0  0  0  0  0  0  0  0  0
   -3.9663    7.5519  -19.6944 C   0  0  0  0  0  0  0  0  0  0  0  0
   -3.2546    8.4960  -18.9879 C   0  0  0  0  0  0  0  0  0  0  0  0
   -2.1701    9.0898  -19.6210 C   0  0  0  0  0  0  0  0  0  0  0  0
   -2.2275    7.4024  -22.9418 C   0  0  1  0  0  0  0  0  0  0  0  0
   -3.6221    8.8889  -17.5954 C   0  0  0  0  0  0  0  0  0  0  0  0
   -1.9123    5.6338  -24.5835 C   0  0  0  0  0  0  0  0  0  0  0  0
   -6.3527    6.8446  -19.7313 C   0  0  0  0  0  0  0  0  0  0  0  0
   -7.3817    5.6019  -17.9563 C   0  0  0  0  0  0  0  0  0  0  0  0
   -2.5618    7.7918  -21.5865 N   0  0  0  0  0  0  0  0  0  0  0  0
   -7.4552    6.2209  -19.1873 C   0  0  0  0  0  0  0  0  0  0  0  0
   -2.4064    5.9222  -23.1793 C   0  0  0  0  0  0  0  0  0  0  0  0
   -0.8788    9.2386  -21.5055 O   0  0  0  0  0  0  0  0  0  0  0  0
   -5.0484    6.2695  -17.8564 C   0  0  0  0  0  0  0  0  0  0  0  0
   -5.1372    6.8827  -19.0849 C   0  0  0  0  0  0  0  0  0  0  0  0
   -2.5134    6.4921  -25.5611 N   0  0  0  0  0  4  0  0  0  0  0  0
   -2.9523    8.2240  -23.9779 C   0  0  0  0  0  0  0  0  0  0  0  0
   -6.1674    5.6354  -17.3022 C   0  0  0  0  0  0  0  0  0  0  0  0
   -3.6027    7.2817  -24.9773 C   0  0  0  0  0  0  0  0  0  0  0  0
   -1.8521    8.7186  -20.9110 C   0  0  0  0  0  0  0  0  0  0  0  0
  2  1  2  0
  1 10  1  0
  2  3  1  0
 15  2  1  0
  3  4  2  0
  3  6  1  0
  4 20  1  0
  5 10  1  1
  5 12  1  0
  5 17  1  0
 12  7  1  0
  7 16  1  0
  8 11  2  0
  8 15  1  0
 11  9  1  0
  9 18  2  0
 10 20  1  0
 20 13  2  0
 15 14  2  0
 14 18  1  0
 16 19  1  0
 17 19  1  0
M  CHG  1  16   1
M  END
$$$$
