
     RDKit          3D

 20 22  0  0  0  0  0  0  0  0999 V2000
   -4.1005    6.1701  -19.6833 N   0  0  0  0  0  0  0  0  0  0  0  0
   -4.0839    6.4597  -18.3701 C   0  0  0  0  0  0  0  0  0  0  0  0
   -5.1835    6.1415  -17.6043 C   0  0  0  0  0  0  0  0  0  0  0  0
   -6.2570    5.5334  -18.2425 C   0  0  0  0  0  0  0  0  0  0  0  0
   -5.0192    5.3225  -21.7499 C   0  0  1  0  0  0  0  0  0  0  0  0
   -5.2385    6.4222  -16.1392 C   0  0  0  0  0  0  0  0  0  0  0  0
   -4.4982    6.1040  -23.9950 C   0  0  0  0  0  0  0  0  0  0  0  0
   -2.3918    8.2819  -18.2545 C   0  0  0  0  0  0  0  0  0  0  0  0
   -0.6600    8.3625  -16.5967 C   0  0  0  0  0  0  0  0  0  0  0  0
   -5.0966    5.5943  -20.3285 N   0  0  0  0  0  0  0  0  0  0  0  0
   -1.2966    8.9043  -17.6945 C   0  0  0  0  0  0  0  0  0  0  0  0
   -4.4091    6.4654  -22.5251 C   0  0  0  0  0  0  0  0  0  0  0  0
   -7.1371    4.7275  -20.1962 O   0  0  0  0  0  0  0  0  0  0  0  0
   -2.2773    6.5514  -16.6608 C   0  0  0  0  0  0  0  0  0  0  0  0
   -2.9015    7.1037  -17.7556 C   0  0  0  0  0  0  0  0  0  0  0  0
   -3.9512    4.8090  -24.2732 N   0  0  0  0  0  4  0  0  0  0  0  0
   -4.3337    4.0144  -22.0549 C   0  0  0  0  0  0  0  0  0  0  0  0
   -1.1646    7.1823  -16.0907 C   0  0  0  0  0  0  0  0  0  0  0  0
   -3.2599    4.2611  -23.1016 C   0  0  0  0  0  0  0  0  0  0  0  0
   -6.1830    5.2752  -19.5956 C   0  0  0  0  0  0  0  0  0  0  0  0
  2  1  2  0
  1 10  1  0
  2  3  1  0
 15  2  1  0
  3  4  2  0
  3  6  1  0
  4 20  1  0
  5 10  1  1
  5 12  1  0
  5 17  1  0
 12  7  1  0
  7 16  1  0
  8 11  2  0
  8 15  1  0
 11  9  1  0
  9 18  2  0
 10 20  1  0
 20 13  2  0
 15 14  2  0
 14 18  1  0
 16 19  1  0
 17 19  1  0
M  CHG  1  16   1
M  END
$$$$
