
     RDKit          3D

 30 33  0  0  0  0  0  0  0  0999 V2000
  -20.9627    6.7326   -3.4390 C   0  0  0  0  0  0  0  0  0  0  0  0
  -15.0071    8.4333    0.0318 C   0  0  0  0  0  0  0  0  0  0  0  0
  -11.7877    9.0191    1.9060 C   0  0  0  0  0  0  0  0  0  0  0  0
  -11.3657   10.2154    1.3725 C   0  0  0  0  0  0  0  0  0  0  0  0
  -13.3234   10.2340   -0.0282 C   0  0  0  0  0  0  0  0  0  0  0  0
  -26.8009   12.1683   -1.3867 C   0  0  0  0  0  0  0  0  0  0  0  0
  -25.5878   11.5041   -0.8439 C   0  0  0  0  0  0  0  0  0  0  0  0
  -24.4330   11.4988   -1.6207 C   0  0  0  0  0  0  0  0  0  0  0  0
  -23.2703   10.9039   -1.1866 C   0  0  0  0  0  0  0  0  0  0  0  0
  -23.2660   10.2934    0.0699 C   0  0  0  0  0  0  0  0  0  0  0  0
  -20.6811    9.0380   -0.6622 C   0  0  1  0  0  0  0  0  0  0  0  0
  -20.3477    7.6993   -2.4574 C   0  0  2  0  0  0  0  0  0  0  0  0
  -18.9576    7.2734   -2.0352 C   0  0  1  0  0  0  0  0  0  0  0  0
  -18.3964    8.3890   -1.1909 C   0  0  1  0  0  0  0  0  0  0  0  0
  -16.1655    9.0688   -0.3713 C   0  0  0  0  0  0  0  0  0  0  0  0
  -13.7587    9.0383    0.4955 C   0  0  0  0  0  0  0  0  0  0  0  0
  -12.9820    8.4414    1.4615 C   0  0  0  0  0  0  0  0  0  0  0  0
  -12.1377   10.8206    0.4041 C   0  0  0  0  0  0  0  0  0  0  0  0
  -19.3716    8.5771   -0.0232 C   0  0  1  0  0  0  0  0  0  0  0  0
  -24.3913   10.2768    0.8717 C   0  0  0  0  0  0  0  0  0  0  0  0
  -25.5402   10.8941    0.3821 C   0  0  0  0  0  0  0  0  0  0  0  0
  -10.2075   10.7674    1.8092 F   0  0  0  0  0  0  0  0  0  0  0  0
  -17.0694    8.1399   -0.7182 N   0  0  0  0  0  0  0  0  0  0  0  0
  -15.2754    7.1212   -0.0948 N   0  0  0  0  0  0  0  0  0  0  0  0
  -16.5058    6.9652   -0.5418 N   0  0  0  0  0  0  0  0  0  0  0  0
  -21.1695    7.9680   -1.3927 O   0  0  0  0  0  0  0  0  0  0  0  0
  -20.7368    7.0819   -4.7523 O   0  0  0  0  0  0  0  0  0  0  0  0
  -19.0565    6.1349   -1.2205 O   0  0  0  0  0  0  0  0  0  0  0  0
  -18.9003    9.4617    0.9139 O   0  0  0  0  0  0  0  0  0  0  0  0
  -21.7871    9.5058    0.6859 S   0  0  0  0  0  0  0  0  0  0  0  0
 12  1  1  0
  1 27  1  6
 15  2  2  0
  2 16  1  0
  2 24  1  0
  4  3  2  0
  3 17  1  0
 18  4  1  0
  4 22  1  0
 16  5  1  0
  5 18  2  0
  6  7  1  6
  8  7  2  0
  7 21  1  0
  9  8  1  0
 10  9  2  0
 10 20  1  0
 30 10  1  0
 19 11  1  0
 11 26  1  0
 11 30  1  1
 13 12  1  0
 12 26  1  1
 14 13  1  0
 13 28  1  1
 14 19  1  0
 14 23  1  1
 15 23  1  0
 16 17  2  0
 19 29  1  1
 20 21  2  0
 23 25  1  0
 24 25  2  0
M  END
$$$$
