
     RDKit          3D

 30 33  0  0  0  0  0  0  0  0999 V2000
  -20.4400    5.1051   -1.1814 C   0  0  0  0  0  0  0  0  0  0  0  0
  -14.6352    8.5245    0.4769 C   0  0  0  0  0  0  0  0  0  0  0  0
  -11.4054    9.3756   -1.2734 C   0  0  0  0  0  0  0  0  0  0  0  0
  -10.4925    9.2614   -0.2499 C   0  0  0  0  0  0  0  0  0  0  0  0
  -12.2928    8.6683    1.2341 C   0  0  0  0  0  0  0  0  0  0  0  0
  -26.7490    9.7605   -3.0444 C   0  0  0  0  0  0  0  0  0  0  0  0
  -25.4761    9.7906   -2.2790 C   0  0  0  0  0  0  0  0  0  0  0  0
  -25.4441    9.1881   -1.0248 C   0  0  0  0  0  0  0  0  0  0  0  0
  -24.3025    9.1749   -0.2560 C   0  0  0  0  0  0  0  0  0  0  0  0
  -23.1538    9.7873   -0.7629 C   0  0  0  0  0  0  0  0  0  0  0  0
  -20.4243    8.6595   -0.4951 C   0  0  1  0  0  0  0  0  0  0  0  0
  -19.9235    6.5121   -1.0090 C   0  0  2  0  0  0  0  0  0  0  0  0
  -18.5646    6.5411   -0.3421 C   0  0  1  0  0  0  0  0  0  0  0  0
  -18.0932    7.9726   -0.3728 C   0  0  1  0  0  0  0  0  0  0  0  0
  -15.6581    8.3918   -0.4422 C   0  0  0  0  0  0  0  0  0  0  0  0
  -13.2177    8.7784    0.2211 C   0  0  0  0  0  0  0  0  0  0  0  0
  -12.7612    9.1326   -1.0274 C   0  0  0  0  0  0  0  0  0  0  0  0
  -10.9411    8.9070    1.0044 C   0  0  0  0  0  0  0  0  0  0  0  0
  -19.1627    8.7934    0.3569 C   0  0  1  0  0  0  0  0  0  0  0  0
  -23.1440   10.3963   -2.0032 C   0  0  0  0  0  0  0  0  0  0  0  0
  -24.3274   10.3797   -2.7382 C   0  0  0  0  0  0  0  0  0  0  0  0
   -9.1814    9.4988   -0.4976 F   0  0  0  0  0  0  0  0  0  0  0  0
  -16.8045    8.1658    0.2173 N   0  0  0  0  0  0  0  0  0  0  0  0
  -15.2290    8.3683    1.6738 N   0  0  0  0  0  0  0  0  0  0  0  0
  -16.5185    8.1559    1.5005 N   0  0  0  0  0  0  0  0  0  0  0  0
  -20.8331    7.3399   -0.4020 O   0  0  0  0  0  0  0  0  0  0  0  0
  -21.5605    5.0368   -1.9799 O   0  0  0  0  0  0  0  0  0  0  0  0
  -18.7087    6.1719    1.0043 O   0  0  0  0  0  0  0  0  0  0  0  0
  -18.7843   10.0995    0.5399 O   0  0  0  0  0  0  0  0  0  0  0  0
  -21.6436    9.8017    0.1890 S   0  0  0  0  0  0  0  0  0  0  0  0
 12  1  1  0
  1 27  1  6
 15  2  2  0
  2 16  1  0
  2 24  1  0
  4  3  2  0
  3 17  1  0
 18  4  1  0
  4 22  1  0
 16  5  1  0
  5 18  2  0
  6  7  1  6
  8  7  2  0
  7 21  1  0
  9  8  1  0
 10  9  2  0
 10 20  1  0
 30 10  1  0
 19 11  1  0
 11 26  1  0
 11 30  1  1
 13 12  1  0
 12 26  1  1
 14 13  1  0
 13 28  1  1
 14 19  1  0
 14 23  1  1
 15 23  1  0
 16 17  2  0
 19 29  1  6
 20 21  2  0
 23 25  1  0
 24 25  2  0
M  END
$$$$
