
     RDKit          3D

 30 33  0  0  0  0  0  0  0  0999 V2000
  -21.2158    8.4485   -3.5720 C   0  0  0  0  0  0  0  0  0  0  0  0
  -23.7929    9.2659    1.3861 C   0  0  0  0  0  0  0  0  0  0  0  0
  -26.5744    8.1672    3.6055 C   0  0  0  0  0  0  0  0  0  0  0  0
  -27.3288    9.3236    3.6963 C   0  0  0  0  0  0  0  0  0  0  0  0
  -25.7708   10.4080    2.2873 C   0  0  0  0  0  0  0  0  0  0  0  0
  -12.3545    6.8845    0.0768 C   0  0  0  0  0  0  0  0  0  0  0  0
  -13.6074    7.6749   -0.1196 C   0  0  0  0  0  0  0  0  0  0  0  0
  -13.9015    8.3000   -1.3121 C   0  0  0  0  0  0  0  0  0  0  0  0
  -15.0591    9.0312   -1.4918 C   0  0  0  0  0  0  0  0  0  0  0  0
  -15.9736    9.1633   -0.4696 C   0  0  0  0  0  0  0  0  0  0  0  0
  -18.7928    8.9284   -0.9847 C   0  0  1  0  0  0  0  0  0  0  0  0
  -20.2956    8.1368   -2.4121 C   0  0  2  0  0  0  0  0  0  0  0  0
  -20.9145    7.2688   -1.3726 C   0  0  1  0  0  0  0  0  0  0  0  0
  -20.7616    7.7652    0.0370 C   0  0  1  0  0  0  0  0  0  0  0  0
  -22.9021    8.2248    1.2541 C   0  0  0  0  0  0  0  0  0  0  0  0
  -25.0137    9.2843    2.1832 C   0  0  0  0  0  0  0  0  0  0  0  0
  -25.4219    8.1521    2.8508 C   0  0  0  0  0  0  0  0  0  0  0  0
  -26.9293   10.4675    3.0305 C   0  0  0  0  0  0  0  0  0  0  0  0
  -19.4982    8.5170    0.2856 C   0  0  1  0  0  0  0  0  0  0  0  0
  -15.6816    8.5392    0.7238 C   0  0  0  0  0  0  0  0  0  0  0  0
  -14.5284    7.8085    0.9075 C   0  0  0  0  0  0  0  0  0  0  0  0
  -28.4744    9.3753    4.4335 F   0  0  0  0  0  0  0  0  0  0  0  0
  -21.9120    8.5985    0.4341 N   0  0  0  0  0  0  0  0  0  0  0  0
  -23.2777   10.2348    0.6188 N   0  0  0  0  0  0  0  0  0  0  0  0
  -22.1647    9.8295    0.0601 N   0  0  0  0  0  0  0  0  0  0  0  0
  -19.7546    9.3359   -1.8863 O   0  0  0  0  0  0  0  0  0  0  0  0
  -21.0544    7.4565   -4.5342 O   0  0  0  0  0  0  0  0  0  0  0  0
  -22.2955    7.0677   -1.5920 O   0  0  0  0  0  0  0  0  0  0  0  0
  -18.5636    7.7468    1.0160 O   0  0  0  0  0  0  0  0  0  0  0  0
  -17.4965   10.1168   -0.6599 S   0  0  0  0  0  0  0  0  0  0  0  0
 12  1  1  6
  1 27  1  0
 15  2  2  0
  2 16  1  0
  2 24  1  0
  4  3  2  0
  3 17  1  0
 18  4  1  0
  4 22  1  0
 16  5  1  0
  5 18  2  0
  7  6  1  0
  8  7  2  0
  7 21  1  0
  9  8  1  0
 10  9  2  0
 10 20  1  0
 30 10  1  0
 19 11  1  0
 11 26  1  0
 11 30  1  1
 13 12  1  0
 12 26  1  0
 14 13  1  0
 13 28  1  6
 14 19  1  0
 14 23  1  6
 15 23  1  0
 16 17  2  0
 19 29  1  1
 20 21  2  0
 23 25  1  0
 24 25  2  0
M  END
$$$$
