
     RDKit          3D

 30 33  0  0  0  0  0  0  0  0999 V2000
  -19.4344    5.3764    0.6264 C   0  0  0  0  0  0  0  0  0  0  0  0
  -15.0774    8.7832   -0.0245 C   0  0  0  0  0  0  0  0  0  0  0  0
  -11.4192    8.6964   -0.7167 C   0  0  0  0  0  0  0  0  0  0  0  0
  -10.8989    9.1234    0.4923 C   0  0  0  0  0  0  0  0  0  0  0  0
  -13.1008    9.3166    1.3309 C   0  0  0  0  0  0  0  0  0  0  0  0
  -26.6387    7.9901   -4.0869 C   0  0  0  0  0  0  0  0  0  0  0  0
  -25.4376    8.3920   -3.2940 C   0  0  0  0  0  0  0  0  0  0  0  0
  -25.4567    9.4601   -2.4232 C   0  0  0  0  0  0  0  0  0  0  0  0
  -24.3457    9.8313   -1.6920 C   0  0  0  0  0  0  0  0  0  0  0  0
  -23.1616    9.1365   -1.8099 C   0  0  0  0  0  0  0  0  0  0  0  0
  -20.4916    8.2892   -1.1605 C   0  0  1  0  0  0  0  0  0  0  0  0
  -19.6757    6.3257   -0.5267 C   0  0  2  0  0  0  0  0  0  0  0  0
  -18.5251    6.4329   -1.4656 C   0  0  1  0  0  0  0  0  0  0  0  0
  -18.1127    7.8380   -1.8007 C   0  0  1  0  0  0  0  0  0  0  0  0
  -15.7413    8.2375   -1.0998 C   0  0  0  0  0  0  0  0  0  0  0  0
  -13.6348    8.8995    0.1530 C   0  0  0  0  0  0  0  0  0  0  0  0
  -12.7826    8.5864   -0.8813 C   0  0  0  0  0  0  0  0  0  0  0  0
  -11.7446    9.4411    1.5389 C   0  0  0  0  0  0  0  0  0  0  0  0
  -19.2369    8.8173   -1.8143 C   0  0  1  0  0  0  0  0  0  0  0  0
  -23.1400    8.0682   -2.6801 C   0  0  0  0  0  0  0  0  0  0  0  0
  -24.2459    7.6941   -3.4112 C   0  0  0  0  0  0  0  0  0  0  0  0
   -9.5557    9.2442    0.6914 F   0  0  0  0  0  0  0  0  0  0  0  0
  -17.0603    8.3154   -0.8842 N   0  0  0  0  0  0  0  0  0  0  0  0
  -16.0578    9.1699    0.8015 N   0  0  0  0  0  0  0  0  0  0  0  0
  -17.2271    8.8885    0.2833 N   0  0  0  0  0  0  0  0  0  0  0  0
  -20.1143    7.5810   -0.0379 O   0  0  0  0  0  0  0  0  0  0  0  0
  -20.6344    4.7373    0.9222 O   0  0  0  0  0  0  0  0  0  0  0  0
  -17.3747    5.7685   -0.9850 O   0  0  0  0  0  0  0  0  0  0  0  0
  -19.6071    9.1740   -3.1319 O   0  0  0  0  0  0  0  0  0  0  0  0
  -21.6826    9.5929   -0.8778 S   0  0  0  0  0  0  0  0  0  0  0  0
 12  1  1  1
  1 27  1  0
 15  2  2  0
  2 16  1  0
  2 24  1  0
  4  3  2  0
  3 17  1  0
 18  4  1  0
  4 22  1  0
 16  5  1  0
  5 18  2  0
  7  6  1  0
  8  7  2  0
  7 21  1  0
  9  8  1  0
 10  9  2  0
 10 20  1  0
 30 10  1  0
 19 11  1  0
 11 26  1  0
 11 30  1  1
 13 12  1  0
 12 26  1  0
 14 13  1  0
 13 28  1  1
 14 19  1  0
 14 23  1  1
 15 23  1  0
 16 17  2  0
 19 29  1  6
 20 21  2  0
 23 25  1  0
 24 25  2  0
M  END
$$$$
