
     RDKit          3D

 30 33  0  0  0  0  0  0  0  0999 V2000
  -19.4395    5.6821    0.9214 C   0  0  0  0  0  0  0  0  0  0  0  0
  -14.9071    8.7596    0.1187 C   0  0  0  0  0  0  0  0  0  0  0  0
  -11.6982    9.2441    1.9456 C   0  0  0  0  0  0  0  0  0  0  0  0
  -10.7745    8.8698    0.9858 C   0  0  0  0  0  0  0  0  0  0  0  0
  -12.5552    8.4360   -0.5075 C   0  0  0  0  0  0  0  0  0  0  0  0
  -26.4978    7.5645   -3.9614 C   0  0  0  0  0  0  0  0  0  0  0  0
  -25.2541    8.1005   -3.3299 C   0  0  0  0  0  0  0  0  0  0  0  0
  -24.6975    9.3028   -3.7098 C   0  0  0  0  0  0  0  0  0  0  0  0
  -23.5473    9.7963   -3.1263 C   0  0  0  0  0  0  0  0  0  0  0  0
  -22.9066    9.0931   -2.1295 C   0  0  0  0  0  0  0  0  0  0  0  0
  -20.2477    8.3276   -1.3465 C   0  0  1  0  0  0  0  0  0  0  0  0
  -19.5626    6.4551   -0.3734 C   0  0  2  0  0  0  0  0  0  0  0  0
  -18.3495    6.3808   -1.2334 C   0  0  1  0  0  0  0  0  0  0  0  0
  -17.8544    7.7048   -1.7420 C   0  0  1  0  0  0  0  0  0  0  0  0
  -15.5250    8.0568   -0.8908 C   0  0  0  0  0  0  0  0  0  0  0  0
  -13.4808    8.7988    0.4190 C   0  0  0  0  0  0  0  0  0  0  0  0
  -13.0452    9.2071    1.6590 C   0  0  0  0  0  0  0  0  0  0  0  0
  -11.1994    8.4576   -0.2636 C   0  0  0  0  0  0  0  0  0  0  0  0
  -18.9309    8.7085   -1.9800 C   0  0  1  0  0  0  0  0  0  0  0  0
  -23.4612    7.8906   -1.7481 C   0  0  0  0  0  0  0  0  0  0  0  0
  -24.6085    7.3946   -2.3270 C   0  0  0  0  0  0  0  0  0  0  0  0
   -9.4342    8.8937    1.2338 F   0  0  0  0  0  0  0  0  0  0  0  0
  -16.8441    8.2784   -0.8333 N   0  0  0  0  0  0  0  0  0  0  0  0
  -15.9134    9.3823    0.7453 N   0  0  0  0  0  0  0  0  0  0  0  0
  -17.0552    9.0908    0.1740 N   0  0  0  0  0  0  0  0  0  0  0  0
  -19.9763    7.7837   -0.1077 O   0  0  0  0  0  0  0  0  0  0  0  0
  -20.6087    4.9504    1.1042 O   0  0  0  0  0  0  0  0  0  0  0  0
  -17.2635    5.7575   -0.5793 O   0  0  0  0  0  0  0  0  0  0  0  0
  -19.1981    8.8756   -3.3588 O   0  0  0  0  0  0  0  0  0  0  0  0
  -21.3959    9.6987   -1.3449 S   0  0  0  0  0  0  0  0  0  0  0  0
 12  1  1  1
  1 27  1  0
 15  2  2  0
  2 16  1  0
  2 24  1  0
  4  3  2  0
  3 17  1  0
 18  4  1  0
  4 22  1  0
 16  5  1  0
  5 18  2  0
  7  6  1  0
  8  7  2  0
  7 21  1  0
  9  8  1  0
 10  9  2  0
 10 20  1  0
 30 10  1  0
 19 11  1  0
 11 26  1  0
 11 30  1  1
 13 12  1  0
 12 26  1  0
 14 13  1  0
 13 28  1  1
 14 19  1  0
 14 23  1  1
 15 23  1  0
 16 17  2  0
 19 29  1  6
 20 21  2  0
 23 25  1  0
 24 25  2  0
M  END
$$$$
