
     RDKit          3D

 30 33  0  0  0  0  0  0  0  0999 V2000
  -19.5393    5.8183    1.1805 C   0  0  0  0  0  0  0  0  0  0  0  0
  -15.1610    9.0135    0.1494 C   0  0  0  0  0  0  0  0  0  0  0  0
  -11.8773    9.6281    1.7953 C   0  0  0  0  0  0  0  0  0  0  0  0
  -10.9960    9.1567    0.8384 C   0  0  0  0  0  0  0  0  0  0  0  0
  -12.8389    8.6072   -0.5367 C   0  0  0  0  0  0  0  0  0  0  0  0
  -26.9670    7.5518   -3.2182 C   0  0  0  0  0  0  0  0  0  0  0  0
  -25.6990    8.0960   -2.6446 C   0  0  0  0  0  0  0  0  0  0  0  0
  -25.5891    8.4588   -1.3195 C   0  0  0  0  0  0  0  0  0  0  0  0
  -24.4171    8.9629   -0.7911 C   0  0  0  0  0  0  0  0  0  0  0  0
  -23.3005    9.1233   -1.5823 C   0  0  0  0  0  0  0  0  0  0  0  0
  -20.5629    8.4508   -1.0144 C   0  0  1  0  0  0  0  0  0  0  0  0
  -19.7639    6.5946   -0.0987 C   0  0  2  0  0  0  0  0  0  0  0  0
  -18.6032    6.5626   -1.0307 C   0  0  1  0  0  0  0  0  0  0  0  0
  -18.1801    7.9041   -1.5581 C   0  0  1  0  0  0  0  0  0  0  0  0
  -15.8183    8.2838   -0.8152 C   0  0  0  0  0  0  0  0  0  0  0  0
  -13.7235    9.0642    0.3881 C   0  0  0  0  0  0  0  0  0  0  0  0
  -13.2351    9.5801    1.5668 C   0  0  0  0  0  0  0  0  0  0  0  0
  -11.4741    8.6360   -0.3498 C   0  0  0  0  0  0  0  0  0  0  0  0
  -19.2989    8.8756   -1.7232 C   0  0  1  0  0  0  0  0  0  0  0  0
  -23.4080    8.7614   -2.9076 C   0  0  0  0  0  0  0  0  0  0  0  0
  -24.5748    8.2578   -3.4390 C   0  0  0  0  0  0  0  0  0  0  0  0
   -9.6466    9.1883    1.0299 F   0  0  0  0  0  0  0  0  0  0  0  0
  -17.1346    8.5032   -0.7076 N   0  0  0  0  0  0  0  0  0  0  0  0
  -16.1424    9.6490    0.8021 N   0  0  0  0  0  0  0  0  0  0  0  0
  -17.3061    9.3401    0.2871 N   0  0  0  0  0  0  0  0  0  0  0  0
  -20.2008    7.9083    0.2016 O   0  0  0  0  0  0  0  0  0  0  0  0
  -20.6856    5.0757    1.4457 O   0  0  0  0  0  0  0  0  0  0  0  0
  -17.4613    5.9692   -0.4480 O   0  0  0  0  0  0  0  0  0  0  0  0
  -19.6539    9.0424   -3.0821 O   0  0  0  0  0  0  0  0  0  0  0  0
  -21.7499    9.7860   -0.9332 S   0  0  0  0  0  0  0  0  0  0  0  0
 12  1  1  1
  1 27  1  0
 15  2  2  0
  2 16  1  0
  2 24  1  0
  4  3  2  0
  3 17  1  0
 18  4  1  0
  4 22  1  0
 16  5  1  0
  5 18  2  0
  7  6  1  0
  8  7  2  0
  7 21  1  0
  9  8  1  0
 10  9  2  0
 10 20  1  0
 30 10  1  0
 19 11  1  0
 11 26  1  0
 11 30  1  1
 13 12  1  0
 12 26  1  0
 14 13  1  0
 13 28  1  1
 14 19  1  0
 14 23  1  1
 15 23  1  0
 16 17  2  0
 19 29  1  6
 20 21  2  0
 23 25  1  0
 24 25  2  0
M  END
$$$$
