
     RDKit          3D

 30 33  0  0  0  0  0  0  0  0999 V2000
  -20.1391    6.5477   -3.1866 C   0  0  0  0  0  0  0  0  0  0  0  0
  -15.7539    8.4374   -0.0127 C   0  0  0  0  0  0  0  0  0  0  0  0
  -12.0649    8.0136    0.2723 C   0  0  0  0  0  0  0  0  0  0  0  0
  -11.7294    9.0655    1.1063 C   0  0  0  0  0  0  0  0  0  0  0  0
  -14.0110    9.6788    1.1913 C   0  0  0  0  0  0  0  0  0  0  0  0
  -27.5972   11.0364   -0.2164 C   0  0  0  0  0  0  0  0  0  0  0  0
  -26.3056   10.3475    0.0842 C   0  0  0  0  0  0  0  0  0  0  0  0
  -26.2580    9.0833    0.6311 C   0  0  0  0  0  0  0  0  0  0  0  0
  -25.0639    8.4483    0.9096 C   0  0  0  0  0  0  0  0  0  0  0  0
  -23.8606    9.0661    0.6467 C   0  0  0  0  0  0  0  0  0  0  0  0
  -21.2474    8.5464   -0.4349 C   0  0  1  0  0  0  0  0  0  0  0  0
  -20.4904    7.7732   -2.3718 C   0  0  2  0  0  0  0  0  0  0  0  0
  -19.5009    8.8789   -2.4953 C   0  0  1  0  0  0  0  0  0  0  0  0
  -19.0432    9.4650   -1.1901 C   0  0  1  0  0  0  0  0  0  0  0  0
  -16.6530    9.3859   -0.4450 C   0  0  0  0  0  0  0  0  0  0  0  0
  -14.3644    8.6527    0.3735 C   0  0  0  0  0  0  0  0  0  0  0  0
  -13.3786    7.8117   -0.0902 C   0  0  0  0  0  0  0  0  0  0  0  0
  -12.7106    9.9174    1.5788 C   0  0  0  0  0  0  0  0  0  0  0  0
  -20.0780    9.4475   -0.1169 C   0  0  1  0  0  0  0  0  0  0  0  0
  -23.9056   10.3302    0.1000 C   0  0  0  0  0  0  0  0  0  0  0  0
  -25.0944   10.9673   -0.1799 C   0  0  0  0  0  0  0  0  0  0  0  0
  -10.4405    9.2957    1.4858 F   0  0  0  0  0  0  0  0  0  0  0  0
  -17.8242    8.7915   -0.7042 N   0  0  0  0  0  0  0  0  0  0  0  0
  -16.4504    7.2941   -0.0356 N   0  0  0  0  0  0  0  0  0  0  0  0
  -17.6742    7.5147   -0.4463 N   0  0  0  0  0  0  0  0  0  0  0  0
  -20.7490    7.4049   -1.0286 O   0  0  0  0  0  0  0  0  0  0  0  0
  -21.0599    6.4361   -4.2237 O   0  0  0  0  0  0  0  0  0  0  0  0
  -18.3416    8.4872   -3.2012 O   0  0  0  0  0  0  0  0  0  0  0  0
  -20.6272   10.7318    0.1045 O   0  0  0  0  0  0  0  0  0  0  0  0
  -22.2759    8.2744    1.0026 S   0  0  0  0  0  0  0  0  0  0  0  0
 12  1  1  6
  1 27  1  0
 15  2  2  0
  2 16  1  0
  2 24  1  0
  4  3  2  0
  3 17  1  0
 18  4  1  0
  4 22  1  0
 16  5  1  0
  5 18  2  0
  7  6  1  0
  8  7  2  0
  7 21  1  0
  9  8  1  0
 10  9  2  0
 10 20  1  0
 30 10  1  0
 19 11  1  0
 11 26  1  0
 11 30  1  1
 13 12  1  0
 12 26  1  0
 14 13  1  0
 13 28  1  1
 14 19  1  0
 14 23  1  1
 15 23  1  0
 16 17  2  0
 19 29  1  6
 20 21  2  0
 23 25  1  0
 24 25  2  0
M  END
$$$$
