
     RDKit          3D

 30 33  0  0  0  0  0  0  0  0999 V2000
  -19.9813    6.5277    1.1971 C   0  0  0  0  0  0  0  0  0  0  0  0
  -15.1071    8.5932   -0.2292 C   0  0  0  0  0  0  0  0  0  0  0  0
  -11.7108    7.3598    0.6725 C   0  0  0  0  0  0  0  0  0  0  0  0
  -11.1166    8.5131    1.1536 C   0  0  0  0  0  0  0  0  0  0  0  0
  -13.1254    9.6839    0.7254 C   0  0  0  0  0  0  0  0  0  0  0  0
  -26.8178    7.1655   -3.9108 C   0  0  0  0  0  0  0  0  0  0  0  0
  -25.4877    7.7615   -3.5813 C   0  0  0  0  0  0  0  0  0  0  0  0
  -25.2717    9.1227   -3.5863 C   0  0  0  0  0  0  0  0  0  0  0  0
  -24.0417    9.6720   -3.2829 C   0  0  0  0  0  0  0  0  0  0  0  0
  -22.9716    8.8661   -2.9602 C   0  0  0  0  0  0  0  0  0  0  0  0
  -20.3679    8.1738   -1.9550 C   0  0  1  0  0  0  0  0  0  0  0  0
  -19.9542    6.7575   -0.2981 C   0  0  2  0  0  0  0  0  0  0  0  0
  -18.7216    6.2486   -0.9604 C   0  0  1  0  0  0  0  0  0  0  0  0
  -18.0504    7.2269   -1.8819 C   0  0  1  0  0  0  0  0  0  0  0  0
  -15.7719    7.5985   -0.9100 C   0  0  0  0  0  0  0  0  0  0  0  0
  -13.7298    8.5641    0.2486 C   0  0  0  0  0  0  0  0  0  0  0  0
  -13.0126    7.3898    0.2226 C   0  0  0  0  0  0  0  0  0  0  0  0
  -11.8265    9.6991    1.1848 C   0  0  0  0  0  0  0  0  0  0  0  0
  -18.9884    8.1602   -2.5692 C   0  0  1  0  0  0  0  0  0  0  0  0
  -23.1850    7.5047   -2.9547 C   0  0  0  0  0  0  0  0  0  0  0  0
  -24.4103    6.9523   -3.2563 C   0  0  0  0  0  0  0  0  0  0  0  0
   -9.8309    8.5210    1.6068 F   0  0  0  0  0  0  0  0  0  0  0  0
  -17.0203    8.0062   -1.1699 N   0  0  0  0  0  0  0  0  0  0  0  0
  -16.0145    9.5710   -0.1132 N   0  0  0  0  0  0  0  0  0  0  0  0
  -17.1432    9.2134   -0.6731 N   0  0  0  0  0  0  0  0  0  0  0  0
  -20.2183    8.1195   -0.5844 O   0  0  0  0  0  0  0  0  0  0  0  0
  -20.7469    5.3936    1.4492 O   0  0  0  0  0  0  0  0  0  0  0  0
  -17.7475    5.8228   -0.0300 O   0  0  0  0  0  0  0  0  0  0  0  0
  -19.1724    7.8141   -3.9281 O   0  0  0  0  0  0  0  0  0  0  0  0
  -21.3438    9.5430   -2.5643 S   0  0  0  0  0  0  0  0  0  0  0  0
 12  1  1  1
  1 27  1  0
 15  2  2  0
  2 16  1  0
  2 24  1  0
  4  3  2  0
  3 17  1  0
 18  4  1  0
  4 22  1  0
 16  5  1  0
  5 18  2  0
  7  6  1  0
  8  7  2  0
  7 21  1  0
  9  8  1  0
 10  9  2  0
 10 20  1  0
 30 10  1  0
 19 11  1  0
 11 26  1  0
 11 30  1  1
 13 12  1  0
 12 26  1  0
 14 13  1  0
 13 28  1  1
 14 19  1  0
 14 23  1  1
 15 23  1  0
 16 17  2  0
 19 29  1  6
 20 21  2  0
 23 25  1  0
 24 25  2  0
M  END
$$$$
