
     RDKit          3D

 30 33  0  0  0  0  0  0  0  0999 V2000
  -20.6459    5.2282    0.1029 C   0  0  0  0  0  0  0  0  0  0  0  0
  -14.7020    8.8834    0.4851 C   0  0  0  0  0  0  0  0  0  0  0  0
  -10.9898    9.2858    1.0119 C   0  0  0  0  0  0  0  0  0  0  0  0
  -10.5402    9.4593   -0.2772 C   0  0  0  0  0  0  0  0  0  0  0  0
  -12.8101    9.2549   -1.0523 C   0  0  0  0  0  0  0  0  0  0  0  0
  -26.2398    8.7345   -4.6099 C   0  0  0  0  0  0  0  0  0  0  0  0
  -25.0847    9.0268   -3.7225 C   0  0  0  0  0  0  0  0  0  0  0  0
  -24.2493   10.0898   -4.0527 C   0  0  0  0  0  0  0  0  0  0  0  0
  -23.1596   10.4223   -3.2804 C   0  0  0  0  0  0  0  0  0  0  0  0
  -22.8993    9.6622   -2.1376 C   0  0  0  0  0  0  0  0  0  0  0  0
  -20.3467    8.6604   -1.0086 C   0  0  1  0  0  0  0  0  0  0  0  0
  -20.0135    6.5147   -0.3673 C   0  0  2  0  0  0  0  0  0  0  0  0
  -18.7107    6.8024    0.3481 C   0  0  1  0  0  0  0  0  0  0  0  0
  -18.1059    8.0133   -0.3155 C   0  0  1  0  0  0  0  0  0  0  0  0
  -15.6740    8.4493   -0.3954 C   0  0  0  0  0  0  0  0  0  0  0  0
  -13.2751    9.0801    0.2310 C   0  0  0  0  0  0  0  0  0  0  0  0
  -12.3551    9.0977    1.2537 C   0  0  0  0  0  0  0  0  0  0  0  0
  -11.4551    9.4432   -1.3081 C   0  0  0  0  0  0  0  0  0  0  0  0
  -19.1442    9.1344   -0.1933 C   0  0  1  0  0  0  0  0  0  0  0  0
  -23.7042    8.5992   -1.7750 C   0  0  0  0  0  0  0  0  0  0  0  0
  -24.7933    8.3075   -2.5933 C   0  0  0  0  0  0  0  0  0  0  0  0
   -9.2160    9.6409   -0.5016 F   0  0  0  0  0  0  0  0  0  0  0  0
  -16.8516    8.4099    0.2464 N   0  0  0  0  0  0  0  0  0  0  0  0
  -15.3566    9.0893    1.6421 N   0  0  0  0  0  0  0  0  0  0  0  0
  -16.6334    8.8029    1.4820 N   0  0  0  0  0  0  0  0  0  0  0  0
  -20.8835    7.5746   -0.3377 O   0  0  0  0  0  0  0  0  0  0  0  0
  -21.6056    4.7518   -0.7631 O   0  0  0  0  0  0  0  0  0  0  0  0
  -18.9874    7.1444    1.6809 O   0  0  0  0  0  0  0  0  0  0  0  0
  -18.6592   10.3446   -0.6210 O   0  0  0  0  0  0  0  0  0  0  0  0
  -21.5003   10.0463   -1.0973 S   0  0  0  0  0  0  0  0  0  0  0  0
 12  1  1  0
  1 27  1  6
 15  2  2  0
  2 16  1  0
  2 24  1  0
  4  3  2  0
  3 17  1  0
 18  4  1  0
  4 22  1  0
 16  5  1  0
  5 18  2  0
  6  7  1  6
  8  7  2  0
  7 21  1  0
  9  8  1  0
 10  9  2  0
 10 20  1  0
 30 10  1  0
 19 11  1  0
 11 26  1  0
 11 30  1  1
 13 12  1  0
 12 26  1  1
 14 13  1  0
 13 28  1  1
 14 19  1  0
 14 23  1  1
 15 23  1  0
 16 17  2  0
 19 29  1  6
 20 21  2  0
 23 25  1  0
 24 25  2  0
M  END
$$$$
