
     RDKit          3D

 30 33  0  0  0  0  0  0  0  0999 V2000
  -19.7077    6.6370    1.3842 C   0  0  0  0  0  0  0  0  0  0  0  0
  -15.0635    9.0073   -0.1005 C   0  0  0  0  0  0  0  0  0  0  0  0
  -11.8808    7.8750    1.4671 C   0  0  0  0  0  0  0  0  0  0  0  0
  -11.1213    9.0305    1.4164 C   0  0  0  0  0  0  0  0  0  0  0  0
  -12.9383   10.1369    0.3852 C   0  0  0  0  0  0  0  0  0  0  0  0
  -26.8054    6.9560   -3.3176 C   0  0  0  0  0  0  0  0  0  0  0  0
  -25.4950    7.6253   -3.0568 C   0  0  0  0  0  0  0  0  0  0  0  0
  -25.3427    8.9933   -3.1271 C   0  0  0  0  0  0  0  0  0  0  0  0
  -24.1309    9.6104   -2.8872 C   0  0  0  0  0  0  0  0  0  0  0  0
  -23.0154    8.8687   -2.5647 C   0  0  0  0  0  0  0  0  0  0  0  0
  -20.3248    8.3195   -1.7116 C   0  0  1  0  0  0  0  0  0  0  0  0
  -19.7554    6.8989   -0.1052 C   0  0  2  0  0  0  0  0  0  0  0  0
  -18.5205    6.4845   -0.8265 C   0  0  1  0  0  0  0  0  0  0  0  0
  -17.9506    7.5229   -1.7504 C   0  0  1  0  0  0  0  0  0  0  0  0
  -15.7058    7.9659   -0.7313 C   0  0  0  0  0  0  0  0  0  0  0  0
  -13.7031    9.0142    0.4242 C   0  0  0  0  0  0  0  0  0  0  0  0
  -13.1663    7.8714    0.9717 C   0  0  0  0  0  0  0  0  0  0  0  0
  -11.6491   10.1850    0.8687 C   0  0  0  0  0  0  0  0  0  0  0  0
  -18.9730    8.4076   -2.3789 C   0  0  1  0  0  0  0  0  0  0  0  0
  -23.1652    7.5006   -2.4939 C   0  0  0  0  0  0  0  0  0  0  0  0
  -24.3720    6.8807   -2.7321 C   0  0  0  0  0  0  0  0  0  0  0  0
   -9.8461    9.0711    1.8968 F   0  0  0  0  0  0  0  0  0  0  0  0
  -16.9445    8.3522   -1.0610 N   0  0  0  0  0  0  0  0  0  0  0  0
  -15.9736    9.9893   -0.0843 N   0  0  0  0  0  0  0  0  0  0  0  0
  -17.0830    9.5912   -0.6551 N   0  0  0  0  0  0  0  0  0  0  0  0
  -20.1170    8.2467   -0.3494 O   0  0  0  0  0  0  0  0  0  0  0  0
  -20.7965    5.8388    1.7207 O   0  0  0  0  0  0  0  0  0  0  0  0
  -17.4847    6.1033    0.0552 O   0  0  0  0  0  0  0  0  0  0  0  0
  -19.1891    8.0785   -3.7373 O   0  0  0  0  0  0  0  0  0  0  0  0
  -21.4096    9.6351   -2.2506 S   0  0  0  0  0  0  0  0  0  0  0  0
 12  1  1  1
  1 27  1  0
 15  2  2  0
  2 16  1  0
  2 24  1  0
  4  3  2  0
  3 17  1  0
 18  4  1  0
  4 22  1  0
 16  5  1  0
  5 18  2  0
  7  6  1  0
  8  7  2  0
  7 21  1  0
  9  8  1  0
 10  9  2  0
 10 20  1  0
 30 10  1  0
 19 11  1  0
 11 26  1  0
 11 30  1  1
 13 12  1  0
 12 26  1  0
 14 13  1  0
 13 28  1  1
 14 19  1  0
 14 23  1  1
 15 23  1  0
 16 17  2  0
 19 29  1  6
 20 21  2  0
 23 25  1  0
 24 25  2  0
M  END
$$$$
