
     RDKit          3D

 30 33  0  0  0  0  0  0  0  0999 V2000
  -19.5374    6.0548    1.3247 C   0  0  0  0  0  0  0  0  0  0  0  0
  -15.0085    8.8642   -0.0209 C   0  0  0  0  0  0  0  0  0  0  0  0
  -11.4313    7.8808    0.3055 C   0  0  0  0  0  0  0  0  0  0  0  0
  -10.9020    8.9776    0.9624 C   0  0  0  0  0  0  0  0  0  0  0  0
  -13.0487    9.9680    0.9636 C   0  0  0  0  0  0  0  0  0  0  0  0
  -26.8501    7.0662   -3.1948 C   0  0  0  0  0  0  0  0  0  0  0  0
  -25.5363    7.6780   -2.8307 C   0  0  0  0  0  0  0  0  0  0  0  0
  -24.4196    7.5469   -3.6277 C   0  0  0  0  0  0  0  0  0  0  0  0
  -23.2057    8.1115   -3.2894 C   0  0  0  0  0  0  0  0  0  0  0  0
  -23.0668    8.8362   -2.1257 C   0  0  0  0  0  0  0  0  0  0  0  0
  -20.3524    8.2323   -1.3937 C   0  0  1  0  0  0  0  0  0  0  0  0
  -19.6672    6.5720   -0.0912 C   0  0  2  0  0  0  0  0  0  0  0  0
  -18.4606    6.3317   -0.9300 C   0  0  1  0  0  0  0  0  0  0  0  0
  -17.9643    7.5343   -1.6810 C   0  0  1  0  0  0  0  0  0  0  0  0
  -15.6413    7.9646   -0.8487 C   0  0  0  0  0  0  0  0  0  0  0  0
  -13.5910    8.9018    0.3187 C   0  0  0  0  0  0  0  0  0  0  0  0
  -12.7713    7.8473   -0.0133 C   0  0  0  0  0  0  0  0  0  0  0  0
  -11.7151   10.0432    1.3013 C   0  0  0  0  0  0  0  0  0  0  0  0
  -19.0388    8.4810   -2.0959 C   0  0  1  0  0  0  0  0  0  0  0  0
  -24.1820    8.9686   -1.3271 C   0  0  0  0  0  0  0  0  0  0  0  0
  -25.3950    8.4074   -1.6606 C   0  0  0  0  0  0  0  0  0  0  0  0
   -9.5814    9.0454    1.2937 F   0  0  0  0  0  0  0  0  0  0  0  0
  -16.9453    8.2630   -0.9025 N   0  0  0  0  0  0  0  0  0  0  0  0
  -15.9909    9.6763    0.3892 N   0  0  0  0  0  0  0  0  0  0  0  0
  -17.1329    9.3118   -0.1383 N   0  0  0  0  0  0  0  0  0  0  0  0
  -20.0739    7.9289   -0.0767 O   0  0  0  0  0  0  0  0  0  0  0  0
  -20.5312    5.1036    1.5333 O   0  0  0  0  0  0  0  0  0  0  0  0
  -17.3723    5.8366   -0.1777 O   0  0  0  0  0  0  0  0  0  0  0  0
  -19.3155    8.3881   -3.4798 O   0  0  0  0  0  0  0  0  0  0  0  0
  -21.4954    9.5852   -1.6417 S   0  0  0  0  0  0  0  0  0  0  0  0
 12  1  1  1
  1 27  1  0
 15  2  2  0
  2 16  1  0
  2 24  1  0
  4  3  2  0
  3 17  1  0
 18  4  1  0
  4 22  1  0
 16  5  1  0
  5 18  2  0
  7  6  1  0
  8  7  2  0
  7 21  1  0
  9  8  1  0
 10  9  2  0
 10 20  1  0
 30 10  1  0
 19 11  1  0
 11 26  1  0
 11 30  1  1
 13 12  1  0
 12 26  1  0
 14 13  1  0
 13 28  1  1
 14 19  1  0
 14 23  1  1
 15 23  1  0
 16 17  2  0
 19 29  1  6
 20 21  2  0
 23 25  1  0
 24 25  2  0
M  END
$$$$
