
     RDKit          3D

 30 33  0  0  0  0  0  0  0  0999 V2000
  -20.6513    4.8620   -0.6344 C   0  0  0  0  0  0  0  0  0  0  0  0
  -14.6237    8.3620    0.2877 C   0  0  0  0  0  0  0  0  0  0  0  0
  -11.4734    9.3253   -1.5475 C   0  0  0  0  0  0  0  0  0  0  0  0
  -10.6029    9.5593   -0.5076 C   0  0  0  0  0  0  0  0  0  0  0  0
  -12.3654    9.0096    1.0371 C   0  0  0  0  0  0  0  0  0  0  0  0
  -26.1293    9.9642   -4.2575 C   0  0  0  0  0  0  0  0  0  0  0  0
  -25.0044    9.9372   -3.2873 C   0  0  0  0  0  0  0  0  0  0  0  0
  -23.7135    9.7596   -3.7761 C   0  0  0  0  0  0  0  0  0  0  0  0
  -22.6206    9.7236   -2.9402 C   0  0  0  0  0  0  0  0  0  0  0  0
  -22.8301    9.8708   -1.5670 C   0  0  0  0  0  0  0  0  0  0  0  0
  -20.3332    8.4640   -0.8051 C   0  0  1  0  0  0  0  0  0  0  0  0
  -20.0169    6.2222   -0.7881 C   0  0  2  0  0  0  0  0  0  0  0  0
  -18.6605    6.2957   -0.1198 C   0  0  1  0  0  0  0  0  0  0  0  0
  -18.0691    7.6353   -0.4776 C   0  0  1  0  0  0  0  0  0  0  0  0
  -15.6831    8.2709   -0.5943 C   0  0  0  0  0  0  0  0  0  0  0  0
  -13.2477    8.7719    0.0083 C   0  0  0  0  0  0  0  0  0  0  0  0
  -12.7894    8.9332   -1.2788 C   0  0  0  0  0  0  0  0  0  0  0  0
  -11.0535    9.4001    0.7852 C   0  0  0  0  0  0  0  0  0  0  0  0
  -19.0648    8.6909    0.0165 C   0  0  1  0  0  0  0  0  0  0  0  0
  -24.0957   10.0492   -1.0417 C   0  0  0  0  0  0  0  0  0  0  0  0
  -25.1653   10.0776   -1.9339 C   0  0  0  0  0  0  0  0  0  0  0  0
   -9.3300    9.9387   -0.7776 F   0  0  0  0  0  0  0  0  0  0  0  0
  -16.7685    7.8554    0.0761 N   0  0  0  0  0  0  0  0  0  0  0  0
  -15.1343    7.9881    1.4747 N   0  0  0  0  0  0  0  0  0  0  0  0
  -16.4104    7.6905    1.3303 N   0  0  0  0  0  0  0  0  0  0  0  0
  -20.8529    7.2423   -0.4117 O   0  0  0  0  0  0  0  0  0  0  0  0
  -21.7222    4.6685   -1.4790 O   0  0  0  0  0  0  0  0  0  0  0  0
  -18.8354    6.2688    1.2725 O   0  0  0  0  0  0  0  0  0  0  0  0
  -18.5766    9.9674   -0.1060 O   0  0  0  0  0  0  0  0  0  0  0  0
  -21.4510    9.8325   -0.4341 S   0  0  0  0  0  0  0  0  0  0  0  0
 12  1  1  0
  1 27  1  6
 15  2  2  0
  2 16  1  0
  2 24  1  0
  4  3  2  0
  3 17  1  0
 18  4  1  0
  4 22  1  0
 16  5  1  0
  5 18  2  0
  6  7  1  6
  8  7  2  0
  7 21  1  0
  9  8  1  0
 10  9  2  0
 10 20  1  0
 30 10  1  0
 19 11  1  0
 11 26  1  0
 11 30  1  1
 13 12  1  0
 12 26  1  1
 14 13  1  0
 13 28  1  1
 14 19  1  0
 14 23  1  1
 15 23  1  0
 16 17  2  0
 19 29  1  6
 20 21  2  0
 23 25  1  0
 24 25  2  0
M  END
$$$$
