
     RDKit          3D

 30 33  0  0  0  0  0  0  0  0999 V2000
  -20.4294    6.9103   -3.7679 C   0  0  0  0  0  0  0  0  0  0  0  0
  -14.7698    8.6828    0.0471 C   0  0  0  0  0  0  0  0  0  0  0  0
  -11.1725    9.3380    0.9693 C   0  0  0  0  0  0  0  0  0  0  0  0
  -11.1740   10.7016    1.1553 C   0  0  0  0  0  0  0  0  0  0  0  0
  -13.5199   10.7310    0.6163 C   0  0  0  0  0  0  0  0  0  0  0  0
  -27.2119   10.3204   -1.1544 C   0  0  0  0  0  0  0  0  0  0  0  0
  -25.8792    9.8913   -0.6574 C   0  0  0  0  0  0  0  0  0  0  0  0
  -24.7475   10.5082   -1.1824 C   0  0  0  0  0  0  0  0  0  0  0  0
  -23.4791   10.1652   -0.7725 C   0  0  0  0  0  0  0  0  0  0  0  0
  -23.3416    9.1693    0.1974 C   0  0  0  0  0  0  0  0  0  0  0  0
  -20.5319    8.6396   -0.5892 C   0  0  1  0  0  0  0  0  0  0  0  0
  -19.9764    7.7370   -2.5899 C   0  0  2  0  0  0  0  0  0  0  0  0
  -18.5503    7.4232   -2.1902 C   0  0  1  0  0  0  0  0  0  0  0  0
  -18.1681    8.4144   -1.1207 C   0  0  1  0  0  0  0  0  0  0  0  0
  -15.9495    9.2393   -0.4079 C   0  0  0  0  0  0  0  0  0  0  0  0
  -13.5346    9.3681    0.4267 C   0  0  0  0  0  0  0  0  0  0  0  0
  -12.3548    8.6837    0.6062 C   0  0  0  0  0  0  0  0  0  0  0  0
  -12.3516   11.3955    0.9775 C   0  0  0  0  0  0  0  0  0  0  0  0
  -19.1855    8.2383    0.0123 C   0  0  1  0  0  0  0  0  0  0  0  0
  -24.4396    8.5326    0.7436 C   0  0  0  0  0  0  0  0  0  0  0  0
  -25.6993    8.9196    0.2918 C   0  0  0  0  0  0  0  0  0  0  0  0
  -10.0240   11.3267    1.5069 F   0  0  0  0  0  0  0  0  0  0  0  0
  -16.8301    8.2541   -0.6405 N   0  0  0  0  0  0  0  0  0  0  0  0
  -15.0023    7.3580    0.0671 N   0  0  0  0  0  0  0  0  0  0  0  0
  -16.2320    7.1212   -0.3448 N   0  0  0  0  0  0  0  0  0  0  0  0
  -20.8508    7.6797   -1.5348 O   0  0  0  0  0  0  0  0  0  0  0  0
  -20.2862    7.5645   -4.9718 O   0  0  0  0  0  0  0  0  0  0  0  0
  -18.5081    6.1434   -1.6154 O   0  0  0  0  0  0  0  0  0  0  0  0
  -18.8624    8.9750    1.1239 O   0  0  0  0  0  0  0  0  0  0  0  0
  -21.7216    8.6824    0.7680 S   0  0  0  0  0  0  0  0  0  0  0  0
 12  1  1  0
  1 27  1  6
 15  2  2  0
  2 16  1  0
  2 24  1  0
  4  3  2  0
  3 17  1  0
 18  4  1  0
  4 22  1  0
 16  5  1  0
  5 18  2  0
  6  7  1  6
  8  7  2  0
  7 21  1  0
  9  8  1  0
 10  9  2  0
 10 20  1  0
 30 10  1  0
 19 11  1  0
 11 26  1  0
 11 30  1  1
 13 12  1  0
 12 26  1  1
 14 13  1  0
 13 28  1  1
 14 19  1  0
 14 23  1  1
 15 23  1  0
 16 17  2  0
 19 29  1  1
 20 21  2  0
 23 25  1  0
 24 25  2  0
M  END
$$$$
