
     RDKit          3D

 30 33  0  0  0  0  0  0  0  0999 V2000
  -18.2843    6.3009   -3.2238 C   0  0  0  0  0  0  0  0  0  0  0  0
  -23.5216    8.7940    0.7535 C   0  0  0  0  0  0  0  0  0  0  0  0
  -25.3278    8.7600    4.0636 C   0  0  0  0  0  0  0  0  0  0  0  0
  -26.6440    8.7084    3.6649 C   0  0  0  0  0  0  0  0  0  0  0  0
  -25.9071    8.7134    1.3732 C   0  0  0  0  0  0  0  0  0  0  0  0
  -11.6132    8.9260    2.0830 C   0  0  0  0  0  0  0  0  0  0  0  0
  -12.8771    9.3130    1.4048 C   0  0  0  0  0  0  0  0  0  0  0  0
  -13.9611    8.4433    1.4798 C   0  0  0  0  0  0  0  0  0  0  0  0
  -15.1647    8.7318    0.8777 C   0  0  0  0  0  0  0  0  0  0  0  0
  -15.2849    9.9339    0.1764 C   0  0  0  0  0  0  0  0  0  0  0  0
  -17.9122    8.9297   -0.7630 C   0  0  1  0  0  0  0  0  0  0  0  0
  -18.5740    7.1708   -2.0256 C   0  0  2  0  0  0  0  0  0  0  0  0
  -20.0517    7.4670   -1.8822 C   0  0  1  0  0  0  0  0  0  0  0  0
  -20.2257    8.1995   -0.5762 C   0  0  1  0  0  0  0  0  0  0  0  0
  -22.2301    8.3167    0.8658 C   0  0  0  0  0  0  0  0  0  0  0  0
  -24.5863    8.7650    1.7559 C   0  0  0  0  0  0  0  0  0  0  0  0
  -24.3103    8.7878    3.1035 C   0  0  0  0  0  0  0  0  0  0  0  0
  -26.9298    8.6853    2.3167 C   0  0  0  0  0  0  0  0  0  0  0  0
  -19.3453    9.4513   -0.6644 C   0  0  1  0  0  0  0  0  0  0  0  0
  -14.2328   10.8243    0.0783 C   0  0  0  0  0  0  0  0  0  0  0  0
  -13.0378   10.4812    0.7071 C   0  0  0  0  0  0  0  0  0  0  0  0
  -27.6228    8.6818    4.6020 F   0  0  0  0  0  0  0  0  0  0  0  0
  -21.5837    8.5445   -0.2877 N   0  0  0  0  0  0  0  0  0  0  0  0
  -23.5924    9.2983   -0.4917 N   0  0  0  0  0  0  0  0  0  0  0  0
  -22.4315    9.1414   -1.0962 N   0  0  0  0  0  0  0  0  0  0  0  0
  -17.7977    8.3010   -1.9913 O   0  0  0  0  0  0  0  0  0  0  0  0
  -17.0384    5.7150   -3.1754 O   0  0  0  0  0  0  0  0  0  0  0  0
  -20.4450    8.3371   -2.9109 O   0  0  0  0  0  0  0  0  0  0  0  0
  -19.5288   10.2952    0.4018 O   0  0  0  0  0  0  0  0  0  0  0  0
  -16.8216   10.3619   -0.6249 S   0  0  0  0  0  0  0  0  0  0  0  0
 12  1  1  0
  1 27  1  6
 15  2  2  0
  2 16  1  0
  2 24  1  0
  4  3  2  0
  3 17  1  0
 18  4  1  0
  4 22  1  0
 16  5  1  0
  5 18  2  0
  6  7  1  6
  8  7  2  0
  7 21  1  0
  9  8  1  0
 10  9  2  0
 10 20  1  0
 30 10  1  0
 19 11  1  0
 11 26  1  0
 11 30  1  6
 13 12  1  0
 12 26  1  6
 14 13  1  0
 13 28  1  6
 14 19  1  0
 14 23  1  6
 15 23  1  0
 16 17  2  0
 19 29  1  1
 20 21  2  0
 23 25  1  0
 24 25  2  0
M  END
$$$$
