
     RDKit          3D

 30 33  0  0  0  0  0  0  0  0999 V2000
  -18.3068    7.0060   -3.8399 C   0  0  0  0  0  0  0  0  0  0  0  0
  -23.4491    9.2678    0.2691 C   0  0  0  0  0  0  0  0  0  0  0  0
  -27.0323    9.1521    1.4382 C   0  0  0  0  0  0  0  0  0  0  0  0
  -26.9132    8.5021    2.6454 C   0  0  0  0  0  0  0  0  0  0  0  0
  -24.5370    8.3599    2.2873 C   0  0  0  0  0  0  0  0  0  0  0  0
  -11.8814    8.2915    2.5177 C   0  0  0  0  0  0  0  0  0  0  0  0
  -13.0427    8.8035    1.7454 C   0  0  0  0  0  0  0  0  0  0  0  0
  -12.8719    9.9515    0.9771 C   0  0  0  0  0  0  0  0  0  0  0  0
  -13.9000   10.4862    0.2347 C   0  0  0  0  0  0  0  0  0  0  0  0
  -15.1420    9.8475    0.2639 C   0  0  0  0  0  0  0  0  0  0  0  0
  -17.7347    9.2128   -1.0279 C   0  0  1  0  0  0  0  0  0  0  0  0
  -18.5368    7.7236   -2.5329 C   0  0  2  0  0  0  0  0  0  0  0  0
  -19.9813    8.1430   -2.3612 C   0  0  1  0  0  0  0  0  0  0  0  0
  -20.1122    8.6985   -0.9660 C   0  0  1  0  0  0  0  0  0  0  0  0
  -22.2661    8.5550    0.2384 C   0  0  0  0  0  0  0  0  0  0  0  0
  -24.6397    9.0087    1.0781 C   0  0  0  0  0  0  0  0  0  0  0  0
  -25.8925    9.3994    0.6652 C   0  0  0  0  0  0  0  0  0  0  0  0
  -25.6617    8.1071    3.0670 C   0  0  0  0  0  0  0  0  0  0  0  0
  -19.1118    9.8559   -0.8682 C   0  0  1  0  0  0  0  0  0  0  0  0
  -15.3528    8.7060    1.0136 C   0  0  0  0  0  0  0  0  0  0  0  0
  -14.2770    8.2085    1.7457 C   0  0  0  0  0  0  0  0  0  0  0  0
  -28.0228    8.2670    3.3872 F   0  0  0  0  0  0  0  0  0  0  0  0
  -21.4360    9.1336   -0.6427 N   0  0  0  0  0  0  0  0  0  0  0  0
  -23.2701   10.2649   -0.6160 N   0  0  0  0  0  0  0  0  0  0  0  0
  -22.0679   10.1696   -1.1486 N   0  0  0  0  0  0  0  0  0  0  0  0
  -17.6547    8.7545   -2.3320 O   0  0  0  0  0  0  0  0  0  0  0  0
  -17.2865    6.0826   -3.7752 O   0  0  0  0  0  0  0  0  0  0  0  0
  -20.2645    9.1838   -3.2592 O   0  0  0  0  0  0  0  0  0  0  0  0
  -19.2357   10.5559    0.3054 O   0  0  0  0  0  0  0  0  0  0  0  0
  -16.5127   10.4951   -0.6789 S   0  0  0  0  0  0  0  0  0  0  0  0
 12  1  1  0
  1 27  1  6
 15  2  2  0
  2 16  1  0
  2 24  1  0
  4  3  2  0
  3 17  1  0
 18  4  1  0
  4 22  1  0
 16  5  1  0
  5 18  2  0
  6  7  1  6
  8  7  2  0
  7 21  1  0
  9  8  1  0
 10  9  2  0
 10 20  1  0
 30 10  1  0
 19 11  1  0
 11 26  1  0
 11 30  1  6
 13 12  1  0
 12 26  1  6
 14 13  1  0
 13 28  1  6
 14 19  1  0
 14 23  1  6
 15 23  1  0
 16 17  2  0
 19 29  1  1
 20 21  2  0
 23 25  1  0
 24 25  2  0
M  END
$$$$
