
     RDKit          3D

 30 33  0  0  0  0  0  0  0  0999 V2000
  -21.0929    5.2214   -1.6324 C   0  0  0  0  0  0  0  0  0  0  0  0
  -14.7172    8.0658   -0.4590 C   0  0  0  0  0  0  0  0  0  0  0  0
  -11.2261    9.3331    0.1941 C   0  0  0  0  0  0  0  0  0  0  0  0
  -11.3616    9.8996    1.4409 C   0  0  0  0  0  0  0  0  0  0  0  0
  -13.6831    9.2631    1.4326 C   0  0  0  0  0  0  0  0  0  0  0  0
  -27.1037    9.8395   -0.1957 C   0  0  0  0  0  0  0  0  0  0  0  0
  -25.6232    9.8381   -0.0720 C   0  0  0  0  0  0  0  0  0  0  0  0
  -25.0642    9.5966    1.1795 C   0  0  0  0  0  0  0  0  0  0  0  0
  -23.7017    9.5793    1.3736 C   0  0  0  0  0  0  0  0  0  0  0  0
  -22.8716    9.8123    0.2745 C   0  0  0  0  0  0  0  0  0  0  0  0
  -20.3212    8.6217   -0.6591 C   0  0  1  0  0  0  0  0  0  0  0  0
  -20.3339    6.5181   -1.4963 C   0  0  2  0  0  0  0  0  0  0  0  0
  -18.8538    6.2898   -1.2743 C   0  0  1  0  0  0  0  0  0  0  0  0
  -18.1919    7.6436   -1.3148 C   0  0  1  0  0  0  0  0  0  0  0  0
  -16.0445    8.4421   -0.3868 C   0  0  0  0  0  0  0  0  0  0  0  0
  -13.5637    8.6924    0.1862 C   0  0  0  0  0  0  0  0  0  0  0  0
  -12.3304    8.7341   -0.4220 C   0  0  0  0  0  0  0  0  0  0  0  0
  -12.5937    9.8625    2.0577 C   0  0  0  0  0  0  0  0  0  0  0  0
  -18.8633    8.4835   -0.2222 C   0  0  1  0  0  0  0  0  0  0  0  0
  -23.3868   10.0560   -0.9844 C   0  0  0  0  0  0  0  0  0  0  0  0
  -24.7730   10.0619   -1.1230 C   0  0  0  0  0  0  0  0  0  0  0  0
  -10.2864   10.4776    2.0298 F   0  0  0  0  0  0  0  0  0  0  0  0
  -16.7743    7.5957   -1.1291 N   0  0  0  0  0  0  0  0  0  0  0  0
  -14.7116    6.9853   -1.2603 N   0  0  0  0  0  0  0  0  0  0  0  0
  -15.9429    6.7200   -1.6493 N   0  0  0  0  0  0  0  0  0  0  0  0
  -20.8885    7.3618   -0.5681 O   0  0  0  0  0  0  0  0  0  0  0  0
  -22.4536    5.3754   -1.4818 O   0  0  0  0  0  0  0  0  0  0  0  0
  -18.6610    5.7630    0.0123 O   0  0  0  0  0  0  0  0  0  0  0  0
  -18.2476    9.6966   -0.0434 O   0  0  0  0  0  0  0  0  0  0  0  0
  -21.0967    9.8023    0.4654 S   0  0  0  0  0  0  0  0  0  0  0  0
 12  1  1  0
  1 27  1  6
 15  2  2  0
  2 16  1  0
  2 24  1  0
  4  3  2  0
  3 17  1  0
 18  4  1  0
  4 22  1  0
 16  5  1  0
  5 18  2  0
  6  7  1  6
  8  7  2  0
  7 21  1  0
  9  8  1  0
 10  9  2  0
 10 20  1  0
 30 10  1  0
 19 11  1  0
 11 26  1  0
 11 30  1  1
 13 12  1  0
 12 26  1  1
 14 13  1  0
 13 28  1  1
 14 19  1  0
 14 23  1  1
 15 23  1  0
 16 17  2  0
 19 29  1  6
 20 21  2  0
 23 25  1  0
 24 25  2  0
M  END
$$$$
