
     RDKit          3D

 30 33  0  0  0  0  0  0  0  0999 V2000
  -20.5599    9.9587   -4.8893 C   0  0  0  0  0  0  0  0  0  0  0  0
  -19.1109    6.4491    0.9850 C   0  0  0  0  0  0  0  0  0  0  0  0
  -16.6763    4.0799    2.6218 C   0  0  0  0  0  0  0  0  0  0  0  0
  -17.5219    3.1443    3.1728 C   0  0  0  0  0  0  0  0  0  0  0  0
  -19.3925    4.3759    2.2901 C   0  0  0  0  0  0  0  0  0  0  0  0
  -13.4446   15.6575   -3.2919 C   0  0  0  0  0  0  0  0  0  0  0  0
  -14.6987   14.9878   -2.8605 C   0  0  0  0  0  0  0  0  0  0  0  0
  -15.5522   15.6727   -2.0005 C   0  0  0  0  0  0  0  0  0  0  0  0
  -16.7316   15.1188   -1.5571 C   0  0  0  0  0  0  0  0  0  0  0  0
  -17.0662   13.8340   -1.9913 C   0  0  0  0  0  0  0  0  0  0  0  0
  -18.7414   11.3897   -2.1055 C   0  0  1  0  0  0  0  0  0  0  0  0
  -19.7331   10.0414   -3.6301 C   0  0  2  0  0  0  0  0  0  0  0  0
  -20.1292    8.9858   -2.6197 C   0  0  1  0  0  0  0  0  0  0  0  0
  -19.1365    9.0695   -1.4884 C   0  0  1  0  0  0  0  0  0  0  0  0
  -18.5211    7.1630   -0.0402 C   0  0  0  0  0  0  0  0  0  0  0  0
  -18.5600    5.3195    1.7333 C   0  0  0  0  0  0  0  0  0  0  0  0
  -17.2046    5.1600    1.9063 C   0  0  0  0  0  0  0  0  0  0  0  0
  -18.8816    3.2962    3.0044 C   0  0  0  0  0  0  0  0  0  0  0  0
  -19.2140   10.5039   -0.9533 C   0  0  1  0  0  0  0  0  0  0  0  0
  -16.2464   13.1208   -2.8450 C   0  0  0  0  0  0  0  0  0  0  0  0
  -15.0650   13.7300   -3.2621 C   0  0  0  0  0  0  0  0  0  0  0  0
  -17.0011    2.1014    3.8642 F   0  0  0  0  0  0  0  0  0  0  0  0
  -19.3716    8.1180   -0.4463 N   0  0  0  0  0  0  0  0  0  0  0  0
  -20.3166    7.0222    1.1508 N   0  0  0  0  0  0  0  0  0  0  0  0
  -20.4546    8.0125    0.2916 N   0  0  0  0  0  0  0  0  0  0  0  0
  -19.7036   11.3049   -3.0975 O   0  0  0  0  0  0  0  0  0  0  0  0
  -19.8212   10.1672   -6.0333 O   0  0  0  0  0  0  0  0  0  0  0  0
  -21.3928    9.3042   -2.0982 O   0  0  0  0  0  0  0  0  0  0  0  0
  -18.4701   10.6773    0.1866 O   0  0  0  0  0  0  0  0  0  0  0  0
  -18.5831   13.0643   -1.4495 S   0  0  0  0  0  0  0  0  0  0  0  0
 12  1  1  0
  1 27  1  6
 15  2  2  0
  2 16  1  0
  2 24  1  0
  4  3  2  0
  3 17  1  0
 18  4  1  0
  4 22  1  0
 16  5  1  0
  5 18  2  0
  6  7  1  6
  8  7  2  0
  7 21  1  0
  9  8  1  0
 10  9  2  0
 10 20  1  0
 30 10  1  0
 19 11  1  0
 11 26  1  0
 11 30  1  1
 13 12  1  0
 12 26  1  1
 14 13  1  0
 13 28  1  1
 14 19  1  0
 14 23  1  1
 15 23  1  0
 16 17  2  0
 19 29  1  1
 20 21  2  0
 23 25  1  0
 24 25  2  0
M  END
$$$$
