
     RDKit          3D

 30 33  0  0  0  0  0  0  0  0999 V2000
  -19.7326    8.2550   -4.1414 C   0  0  0  0  0  0  0  0  0  0  0  0
  -23.9054    9.1055    1.3118 C   0  0  0  0  0  0  0  0  0  0  0  0
  -27.3491    8.6154    2.7681 C   0  0  0  0  0  0  0  0  0  0  0  0
  -27.1432    7.5604    3.6274 C   0  0  0  0  0  0  0  0  0  0  0  0
  -24.8290    7.5266    2.9656 C   0  0  0  0  0  0  0  0  0  0  0  0
  -12.2933    7.3551    1.3108 C   0  0  0  0  0  0  0  0  0  0  0  0
  -13.4617    8.1654    0.8804 C   0  0  0  0  0  0  0  0  0  0  0  0
  -14.6151    7.5000    0.4754 C   0  0  0  0  0  0  0  0  0  0  0  0
  -15.7378    8.1810    0.0631 C   0  0  0  0  0  0  0  0  0  0  0  0
  -15.7022    9.5775    0.0569 C   0  0  0  0  0  0  0  0  0  0  0  0
  -18.4870    9.4287   -0.9515 C   0  0  1  0  0  0  0  0  0  0  0  0
  -19.6629    8.5150   -2.6569 C   0  0  2  0  0  0  0  0  0  0  0  0
  -21.0151    8.8741   -2.0786 C   0  0  1  0  0  0  0  0  0  0  0  0
  -20.8442    8.9510   -0.5829 C   0  0  1  0  0  0  0  0  0  0  0  0
  -22.8435    8.4101    0.7664 C   0  0  0  0  0  0  0  0  0  0  0  0
  -25.0188    8.5810    2.1020 C   0  0  0  0  0  0  0  0  0  0  0  0
  -26.2831    9.1162    2.0127 C   0  0  0  0  0  0  0  0  0  0  0  0
  -25.8797    7.0179    3.7234 C   0  0  0  0  0  0  0  0  0  0  0  0
  -19.7585   10.0026   -0.3275 C   0  0  1  0  0  0  0  0  0  0  0  0
  -14.5770   10.2758    0.4514 C   0  0  0  0  0  0  0  0  0  0  0  0
  -13.4695    9.5355    0.8590 C   0  0  0  0  0  0  0  0  0  0  0  0
  -28.1818    7.0821    4.3551 F   0  0  0  0  0  0  0  0  0  0  0  0
  -22.0491    9.2746    0.1171 N   0  0  0  0  0  0  0  0  0  0  0  0
  -23.6942   10.3855    0.9562 N   0  0  0  0  0  0  0  0  0  0  0  0
  -22.5863   10.4676    0.2465 N   0  0  0  0  0  0  0  0  0  0  0  0
  -18.6836    9.4150   -2.3221 O   0  0  0  0  0  0  0  0  0  0  0  0
  -19.0564    7.1164   -4.5212 O   0  0  0  0  0  0  0  0  0  0  0  0
  -21.3795   10.1524   -2.5290 O   0  0  0  0  0  0  0  0  0  0  0  0
  -19.6107   10.2877    1.0065 O   0  0  0  0  0  0  0  0  0  0  0  0
  -17.1282   10.5146   -0.4677 S   0  0  0  0  0  0  0  0  0  0  0  0
 12  1  1  0
  1 27  1  6
 15  2  2  0
  2 16  1  0
  2 24  1  0
  4  3  2  0
  3 17  1  0
 18  4  1  0
  4 22  1  0
 16  5  1  0
  5 18  2  0
  6  7  1  6
  8  7  2  0
  7 21  1  0
  9  8  1  0
 10  9  2  0
 10 20  1  0
 30 10  1  0
 19 11  1  0
 11 26  1  0
 11 30  1  6
 13 12  1  0
 12 26  1  6
 14 13  1  0
 13 28  1  6
 14 19  1  0
 14 23  1  1
 15 23  1  0
 16 17  2  0
 19 29  1  1
 20 21  2  0
 23 25  1  0
 24 25  2  0
M  END
$$$$
