
     RDKit          3D

 30 33  0  0  0  0  0  0  0  0999 V2000
  -19.5090    5.3768    1.0907 C   0  0  0  0  0  0  0  0  0  0  0  0
  -15.1670    8.6767    0.1924 C   0  0  0  0  0  0  0  0  0  0  0  0
  -11.8659    8.9982    1.8864 C   0  0  0  0  0  0  0  0  0  0  0  0
  -10.9941    8.8663    0.8200 C   0  0  0  0  0  0  0  0  0  0  0  0
  -12.8512    8.6163   -0.6213 C   0  0  0  0  0  0  0  0  0  0  0  0
  -26.6096    7.7494   -4.1284 C   0  0  0  0  0  0  0  0  0  0  0  0
  -25.4364    8.1568   -3.2973 C   0  0  0  0  0  0  0  0  0  0  0  0
  -25.5120    8.2689   -1.9257 C   0  0  0  0  0  0  0  0  0  0  0  0
  -24.4275    8.6468   -1.1590 C   0  0  0  0  0  0  0  0  0  0  0  0
  -23.2141    8.9294   -1.7477 C   0  0  0  0  0  0  0  0  0  0  0  0
  -20.5745    8.1166   -0.9472 C   0  0  1  0  0  0  0  0  0  0  0  0
  -19.7514    6.2203   -0.1418 C   0  0  2  0  0  0  0  0  0  0  0  0
  -18.5986    6.2503   -1.0837 C   0  0  1  0  0  0  0  0  0  0  0  0
  -18.1918    7.6226   -1.5397 C   0  0  1  0  0  0  0  0  0  0  0  0
  -15.8257    8.0025   -0.8108 C   0  0  0  0  0  0  0  0  0  0  0  0
  -13.7267    8.7431    0.4102 C   0  0  0  0  0  0  0  0  0  0  0  0
  -13.2263    8.9361    1.6777 C   0  0  0  0  0  0  0  0  0  0  0  0
  -11.4843    8.6720   -0.4580 C   0  0  0  0  0  0  0  0  0  0  0  0
  -19.3205    8.5914   -1.6418 C   0  0  1  0  0  0  0  0  0  0  0  0
  -23.1361    8.8182   -3.1190 C   0  0  0  0  0  0  0  0  0  0  0  0
  -24.2151    8.4413   -3.8878 C   0  0  0  0  0  0  0  0  0  0  0  0
   -9.6425    8.9225    0.9888 F   0  0  0  0  0  0  0  0  0  0  0  0
  -17.1442    8.1835   -0.6660 N   0  0  0  0  0  0  0  0  0  0  0  0
  -16.1498    9.2416    0.9050 N   0  0  0  0  0  0  0  0  0  0  0  0
  -17.3158    8.9435    0.3886 N   0  0  0  0  0  0  0  0  0  0  0  0
  -20.1971    7.5114    0.2340 O   0  0  0  0  0  0  0  0  0  0  0  0
  -20.6946    4.7224    1.4102 O   0  0  0  0  0  0  0  0  0  0  0  0
  -17.4466    5.6362   -0.5439 O   0  0  0  0  0  0  0  0  0  0  0  0
  -19.6887    8.8296   -2.9864 O   0  0  0  0  0  0  0  0  0  0  0  0
  -21.7724    9.4344   -0.7828 S   0  0  0  0  0  0  0  0  0  0  0  0
 12  1  1  1
  1 27  1  0
 15  2  2  0
  2 16  1  0
  2 24  1  0
  4  3  2  0
  3 17  1  0
 18  4  1  0
  4 22  1  0
 16  5  1  0
  5 18  2  0
  7  6  1  0
  8  7  2  0
  7 21  1  0
  9  8  1  0
 10  9  2  0
 10 20  1  0
 30 10  1  0
 19 11  1  0
 11 26  1  0
 11 30  1  1
 13 12  1  0
 12 26  1  0
 14 13  1  0
 13 28  1  1
 14 19  1  0
 14 23  1  1
 15 23  1  0
 16 17  2  0
 19 29  1  6
 20 21  2  0
 23 25  1  0
 24 25  2  0
M  END
$$$$
