
     RDKit          3D

 30 33  0  0  0  0  0  0  0  0999 V2000
  -18.9833    6.5545    1.3820 C   0  0  0  0  0  0  0  0  0  0  0  0
  -15.0473    8.5894   -0.6778 C   0  0  0  0  0  0  0  0  0  0  0  0
  -11.8538    9.4069    1.0552 C   0  0  0  0  0  0  0  0  0  0  0  0
  -12.0505    8.8155    2.2906 C   0  0  0  0  0  0  0  0  0  0  0  0
  -14.1823    8.0946    1.5662 C   0  0  0  0  0  0  0  0  0  0  0  0
  -26.9908    8.0157   -2.3918 C   0  0  0  0  0  0  0  0  0  0  0  0
  -25.5916    8.4996   -2.1888 C   0  0  0  0  0  0  0  0  0  0  0  0
  -24.9034    9.1861   -3.1658 C   0  0  0  0  0  0  0  0  0  0  0  0
  -23.6100    9.6315   -2.9775 C   0  0  0  0  0  0  0  0  0  0  0  0
  -22.9528    9.4012   -1.7884 C   0  0  0  0  0  0  0  0  0  0  0  0
  -20.2646    8.4814   -1.3457 C   0  0  1  0  0  0  0  0  0  0  0  0
  -19.4450    6.9065   -0.0152 C   0  0  2  0  0  0  0  0  0  0  0  0
  -18.5637    6.3725   -1.0899 C   0  0  1  0  0  0  0  0  0  0  0  0
  -18.1584    7.3768   -2.1310 C   0  0  1  0  0  0  0  0  0  0  0  0
  -16.1813    7.8095   -0.6550 C   0  0  0  0  0  0  0  0  0  0  0  0
  -14.0118    8.6674    0.3458 C   0  0  0  0  0  0  0  0  0  0  0  0
  -12.8334    9.3307    0.0894 C   0  0  0  0  0  0  0  0  0  0  0  0
  -13.2299    8.1465    2.5604 C   0  0  0  0  0  0  0  0  0  0  0  0
  -19.1835    8.4259   -2.3987 C   0  0  1  0  0  0  0  0  0  0  0  0
  -23.6389    8.7148   -0.8101 C   0  0  0  0  0  0  0  0  0  0  0  0
  -24.9292    8.2690   -0.9934 C   0  0  0  0  0  0  0  0  0  0  0  0
  -11.1038    8.8707    3.2699 F   0  0  0  0  0  0  0  0  0  0  0  0
  -16.8802    8.0221   -1.7769 N   0  0  0  0  0  0  0  0  0  0  0  0
  -15.1268    9.2460   -1.8420 N   0  0  0  0  0  0  0  0  0  0  0  0
  -16.2152    8.9031   -2.4846 N   0  0  0  0  0  0  0  0  0  0  0  0
  -19.6635    8.3024   -0.1166 O   0  0  0  0  0  0  0  0  0  0  0  0
  -19.9849    5.8094    1.9965 O   0  0  0  0  0  0  0  0  0  0  0  0
  -17.3751    5.8051   -0.5789 O   0  0  0  0  0  0  0  0  0  0  0  0
  -19.8498    8.2082   -3.6271 O   0  0  0  0  0  0  0  0  0  0  0  0
  -21.2584    9.9599   -1.5031 S   0  0  0  0  0  0  0  0  0  0  0  0
 12  1  1  1
  1 27  1  0
 15  2  2  0
  2 16  1  0
  2 24  1  0
  4  3  2  0
  3 17  1  0
 18  4  1  0
  4 22  1  0
 16  5  1  0
  5 18  2  0
  7  6  1  0
  8  7  2  0
  7 21  1  0
  9  8  1  0
 10  9  2  0
 10 20  1  0
 30 10  1  0
 19 11  1  0
 11 26  1  0
 11 30  1  1
 13 12  1  0
 12 26  1  0
 14 13  1  0
 13 28  1  1
 14 19  1  0
 14 23  1  1
 15 23  1  0
 16 17  2  0
 19 29  1  6
 20 21  2  0
 23 25  1  0
 24 25  2  0
M  END
$$$$
