
     RDKit          3D

 30 33  0  0  0  0  0  0  0  0999 V2000
  -20.6096    8.2642    1.3689 C   0  0  0  0  0  0  0  0  0  0  0  0
  -15.3834    8.8838   -0.0806 C   0  0  0  0  0  0  0  0  0  0  0  0
  -12.1108   10.1324    1.1847 C   0  0  0  0  0  0  0  0  0  0  0  0
  -11.6409    9.0278    1.8730 C   0  0  0  0  0  0  0  0  0  0  0  0
  -13.6090    7.8625    1.2747 C   0  0  0  0  0  0  0  0  0  0  0  0
  -26.6983    7.0604   -4.8098 C   0  0  0  0  0  0  0  0  0  0  0  0
  -25.3410    7.5953   -4.4863 C   0  0  0  0  0  0  0  0  0  0  0  0
  -24.3623    6.8142   -3.9105 C   0  0  0  0  0  0  0  0  0  0  0  0
  -23.1089    7.3101   -3.6108 C   0  0  0  0  0  0  0  0  0  0  0  0
  -22.7887    8.6229   -3.8809 C   0  0  0  0  0  0  0  0  0  0  0  0
  -20.4758    8.2871   -2.2055 C   0  0  1  0  0  0  0  0  0  0  0  0
  -20.4295    7.7679   -0.0490 C   0  0  2  0  0  0  0  0  0  0  0  0
  -19.2496    6.8773   -0.2269 C   0  0  1  0  0  0  0  0  0  0  0  0
  -18.3578    7.2344   -1.3819 C   0  0  1  0  0  0  0  0  0  0  0  0
  -16.1569    7.7689   -0.3120 C   0  0  0  0  0  0  0  0  0  0  0  0
  -14.0910    8.9345    0.5927 C   0  0  0  0  0  0  0  0  0  0  0  0
  -13.3317   10.0815    0.5485 C   0  0  0  0  0  0  0  0  0  0  0  0
  -12.3943    7.8697    1.9249 C   0  0  0  0  0  0  0  0  0  0  0  0
  -19.0739    7.8379   -2.5421 C   0  0  1  0  0  0  0  0  0  0  0  0
  -23.7657    9.4059   -4.4565 C   0  0  0  0  0  0  0  0  0  0  0  0
  -25.0172    8.9154   -4.7575 C   0  0  0  0  0  0  0  0  0  0  0  0
  -10.4379    9.0418    2.5141 F   0  0  0  0  0  0  0  0  0  0  0  0
  -17.2720    8.1368   -0.9550 N   0  0  0  0  0  0  0  0  0  0  0  0
  -16.0928    9.8882   -0.6104 N   0  0  0  0  0  0  0  0  0  0  0  0
  -17.2086    9.4354   -1.1252 N   0  0  0  0  0  0  0  0  0  0  0  0
  -20.4436    8.8603   -0.9508 O   0  0  0  0  0  0  0  0  0  0  0  0
  -21.9479    8.1104    1.7171 O   0  0  0  0  0  0  0  0  0  0  0  0
  -18.4336    6.8287    0.9252 O   0  0  0  0  0  0  0  0  0  0  0  0
  -19.2065    6.9223   -3.6118 O   0  0  0  0  0  0  0  0  0  0  0  0
  -21.1637    9.3140   -3.4981 S   0  0  0  0  0  0  0  0  0  0  0  0
 12  1  1  1
  1 27  1  0
 15  2  2  0
  2 16  1  0
  2 24  1  0
  4  3  2  0
  3 17  1  0
 18  4  1  0
  4 22  1  0
 16  5  1  0
  5 18  2  0
  7  6  1  0
  8  7  2  0
  7 21  1  0
  9  8  1  0
 10  9  2  0
 10 20  1  0
 30 10  1  0
 19 11  1  0
 11 26  1  0
 11 30  1  6
 13 12  1  0
 12 26  1  0
 14 13  1  0
 13 28  1  1
 14 19  1  0
 14 23  1  1
 15 23  1  0
 16 17  2  0
 19 29  1  6
 20 21  2  0
 23 25  1  0
 24 25  2  0
M  END
$$$$
