
     RDKit          3D

 30 33  0  0  0  0  0  0  0  0999 V2000
  -23.0646    9.1913   -3.1275 C   0  0  0  0  0  0  0  0  0  0  0  0
  -18.8414    6.6640    1.8572 C   0  0  0  0  0  0  0  0  0  0  0  0
  -17.1052    3.4282    2.7145 C   0  0  0  0  0  0  0  0  0  0  0  0
  -16.8962    3.5713    4.0672 C   0  0  0  0  0  0  0  0  0  0  0  0
  -17.9581    5.7290    3.9612 C   0  0  0  0  0  0  0  0  0  0  0  0
  -15.6696   11.0143   -8.4224 C   0  0  0  0  0  0  0  0  0  0  0  0
  -16.3639   11.1550   -7.1165 C   0  0  0  0  0  0  0  0  0  0  0  0
  -17.7518   11.2579   -7.1130 C   0  0  0  0  0  0  0  0  0  0  0  0
  -18.4657   11.3907   -5.9438 C   0  0  0  0  0  0  0  0  0  0  0  0
  -17.7631   11.4213   -4.7368 C   0  0  0  0  0  0  0  0  0  0  0  0
  -19.5766   10.1018   -2.7967 C   0  0  1  0  0  0  0  0  0  0  0  0
  -21.6137    9.1168   -2.7204 C   0  0  2  0  0  0  0  0  0  0  0  0
  -21.4455    8.5983   -1.3080 C   0  0  1  0  0  0  0  0  0  0  0  0
  -19.9658    8.4209   -1.0811 C   0  0  1  0  0  0  0  0  0  0  0  0
  -18.9462    6.8046    0.4869 C   0  0  0  0  0  0  0  0  0  0  0  0
  -18.1744    5.6008    2.6082 C   0  0  0  0  0  0  0  0  0  0  0  0
  -17.7433    4.4460    1.9972 C   0  0  0  0  0  0  0  0  0  0  0  0
  -17.3248    4.7251    4.6877 C   0  0  0  0  0  0  0  0  0  0  0  0
  -19.3262    9.7932   -1.3211 C   0  0  1  0  0  0  0  0  0  0  0  0
  -16.3855   11.3222   -4.6972 C   0  0  0  0  0  0  0  0  0  0  0  0
  -15.7141   11.1895   -5.9107 C   0  0  0  0  0  0  0  0  0  0  0  0
  -16.2772    2.5800    4.7537 F   0  0  0  0  0  0  0  0  0  0  0  0
  -19.6400    7.9214    0.2192 N   0  0  0  0  0  0  0  0  0  0  0  0
  -19.4924    7.7281    2.3606 N   0  0  0  0  0  0  0  0  0  0  0  0
  -19.9607    8.4648    1.3727 N   0  0  0  0  0  0  0  0  0  0  0  0
  -20.9406   10.2913   -2.9411 O   0  0  0  0  0  0  0  0  0  0  0  0
  -23.2349    9.4706   -4.4657 O   0  0  0  0  0  0  0  0  0  0  0  0
  -21.8977    9.5743   -0.4064 O   0  0  0  0  0  0  0  0  0  0  0  0
  -17.9934    9.8125   -0.9955 O   0  0  0  0  0  0  0  0  0  0  0  0
  -18.6353   11.5918   -3.1885 S   0  0  0  0  0  0  0  0  0  0  0  0
 12  1  1  0
  1 27  1  6
 15  2  2  0
  2 16  1  0
  2 24  1  0
  4  3  2  0
  3 17  1  0
 18  4  1  0
  4 22  1  0
 16  5  1  0
  5 18  2  0
  6  7  1  6
  8  7  2  0
  7 21  1  0
  9  8  1  0
 10  9  2  0
 10 20  1  0
 30 10  1  0
 19 11  1  0
 11 26  1  0
 11 30  1  1
 13 12  1  0
 12 26  1  1
 14 13  1  0
 13 28  1  1
 14 19  1  0
 14 23  1  1
 15 23  1  0
 16 17  2  0
 19 29  1  6
 20 21  2  0
 23 25  1  0
 24 25  2  0
M  END
$$$$
