
     RDKit          3D

 30 33  0  0  0  0  0  0  0  0999 V2000
  -20.3728    5.1066   -0.0068 C   0  0  0  0  0  0  0  0  0  0  0  0
  -14.7340    8.6412   -0.8123 C   0  0  0  0  0  0  0  0  0  0  0  0
  -12.1167    8.0992    1.8478 C   0  0  0  0  0  0  0  0  0  0  0  0
  -11.1458    9.0004    1.4745 C   0  0  0  0  0  0  0  0  0  0  0  0
  -12.5273    9.6554   -0.3850 C   0  0  0  0  0  0  0  0  0  0  0  0
  -27.2834    9.0065   -2.4018 C   0  0  0  0  0  0  0  0  0  0  0  0
  -25.8899    9.2294   -1.9374 C   0  0  0  0  0  0  0  0  0  0  0  0
  -24.9423    9.6492   -2.8664 C   0  0  0  0  0  0  0  0  0  0  0  0
  -23.6318    9.8768   -2.5126 C   0  0  0  0  0  0  0  0  0  0  0  0
  -23.2592    9.6763   -1.1813 C   0  0  0  0  0  0  0  0  0  0  0  0
  -20.5145    8.5574   -1.0915 C   0  0  1  0  0  0  0  0  0  0  0  0
  -19.9773    6.3964   -0.6822 C   0  0  2  0  0  0  0  0  0  0  0  0
  -18.4895    6.6577   -0.5817 C   0  0  1  0  0  0  0  0  0  0  0  0
  -18.2020    7.8760   -1.4217 C   0  0  1  0  0  0  0  0  0  0  0  0
  -15.9753    8.1985   -0.3980 C   0  0  0  0  0  0  0  0  0  0  0  0
  -13.5072    8.7591   -0.0246 C   0  0  0  0  0  0  0  0  0  0  0  0
  -13.2897    7.9873    1.0933 C   0  0  0  0  0  0  0  0  0  0  0  0
  -11.3553    9.7778    0.3557 C   0  0  0  0  0  0  0  0  0  0  0  0
  -19.0721    9.0039   -0.8554 C   0  0  1  0  0  0  0  0  0  0  0  0
  -24.1694    9.2600   -0.2285 C   0  0  0  0  0  0  0  0  0  0  0  0
  -25.4821    9.0449   -0.6424 C   0  0  0  0  0  0  0  0  0  0  0  0
  -10.0129    9.1018    2.2114 F   0  0  0  0  0  0  0  0  0  0  0  0
  -16.8213    8.2497   -1.4381 N   0  0  0  0  0  0  0  0  0  0  0  0
  -14.8962    8.9448   -2.1127 N   0  0  0  0  0  0  0  0  0  0  0  0
  -16.1431    8.7060   -2.4678 N   0  0  0  0  0  0  0  0  0  0  0  0
  -20.7351    7.4634   -0.2719 O   0  0  0  0  0  0  0  0  0  0  0  0
  -21.5863    4.6208   -0.4419 O   0  0  0  0  0  0  0  0  0  0  0  0
  -18.1704    6.9755    0.7477 O   0  0  0  0  0  0  0  0  0  0  0  0
  -18.7934   10.2179   -1.4309 O   0  0  0  0  0  0  0  0  0  0  0  0
  -21.5737    9.9554   -0.6637 S   0  0  0  0  0  0  0  0  0  0  0  0
 12  1  1  0
  1 27  1  6
 15  2  2  0
  2 16  1  0
  2 24  1  0
  4  3  2  0
  3 17  1  0
 18  4  1  0
  4 22  1  0
 16  5  1  0
  5 18  2  0
  6  7  1  6
  8  7  2  0
  7 21  1  0
  9  8  1  0
 10  9  2  0
 10 20  1  0
 30 10  1  0
 19 11  1  0
 11 26  1  0
 11 30  1  1
 13 12  1  0
 12 26  1  1
 14 13  1  0
 13 28  1  1
 14 19  1  0
 14 23  1  1
 15 23  1  0
 16 17  2  0
 19 29  1  6
 20 21  2  0
 23 25  1  0
 24 25  2  0
M  END
$$$$
