
     RDKit          3D

 30 33  0  0  0  0  0  0  0  0999 V2000
  -20.5434    7.6146    1.5871 C   0  0  0  0  0  0  0  0  0  0  0  0
  -15.3892    8.8422   -0.0170 C   0  0  0  0  0  0  0  0  0  0  0  0
  -12.1461    7.8113    1.4961 C   0  0  0  0  0  0  0  0  0  0  0  0
  -11.4147    8.9825    1.4069 C   0  0  0  0  0  0  0  0  0  0  0  0
  -13.2799   10.0283    0.3986 C   0  0  0  0  0  0  0  0  0  0  0  0
  -26.1776    6.4137   -5.3483 C   0  0  0  0  0  0  0  0  0  0  0  0
  -25.0101    7.1576   -4.7856 C   0  0  0  0  0  0  0  0  0  0  0  0
  -24.7467    8.4692   -5.1170 C   0  0  0  0  0  0  0  0  0  0  0  0
  -23.6666    9.1550   -4.5974 C   0  0  0  0  0  0  0  0  0  0  0  0
  -22.8019    8.5424   -3.7167 C   0  0  0  0  0  0  0  0  0  0  0  0
  -20.5653    8.2283   -1.9369 C   0  0  1  0  0  0  0  0  0  0  0  0
  -20.3929    7.3696    0.1016 C   0  0  2  0  0  0  0  0  0  0  0  0
  -19.1668    6.6054   -0.2586 C   0  0  1  0  0  0  0  0  0  0  0  0
  -18.3504    7.2078   -1.3664 C   0  0  1  0  0  0  0  0  0  0  0  0
  -16.0724    7.7357   -0.4684 C   0  0  0  0  0  0  0  0  0  0  0  0
  -14.0176    8.8896    0.4756 C   0  0  0  0  0  0  0  0  0  0  0  0
  -13.4422    7.7695    1.0310 C   0  0  0  0  0  0  0  0  0  0  0  0
  -11.9814   10.1145    0.8509 C   0  0  0  0  0  0  0  0  0  0  0  0
  -19.1531    7.9399   -2.3875 C   0  0  1  0  0  0  0  0  0  0  0  0
  -23.0632    7.2309   -3.3840 C   0  0  0  0  0  0  0  0  0  0  0  0
  -24.1395    6.5430   -3.8995 C   0  0  0  0  0  0  0  0  0  0  0  0
  -10.1302    9.0608    1.8566 F   0  0  0  0  0  0  0  0  0  0  0  0
  -17.3077    8.1031   -0.8311 N   0  0  0  0  0  0  0  0  0  0  0  0
  -16.2726    9.8414   -0.1356 N   0  0  0  0  0  0  0  0  0  0  0  0
  -17.4046    9.3933   -0.6182 N   0  0  0  0  0  0  0  0  0  0  0  0
  -20.5161    8.5904   -0.6063 O   0  0  0  0  0  0  0  0  0  0  0  0
  -21.8180    7.2072    1.9683 O   0  0  0  0  0  0  0  0  0  0  0  0
  -18.3005    6.4277    0.8431 O   0  0  0  0  0  0  0  0  0  0  0  0
  -19.2724    7.2035   -3.5891 O   0  0  0  0  0  0  0  0  0  0  0  0
  -21.3729    9.4005   -3.0194 S   0  0  0  0  0  0  0  0  0  0  0  0
 12  1  1  1
  1 27  1  0
 15  2  2  0
  2 16  1  0
  2 24  1  0
  4  3  2  0
  3 17  1  0
 18  4  1  0
  4 22  1  0
 16  5  1  0
  5 18  2  0
  7  6  1  0
  8  7  2  0
  7 21  1  0
  9  8  1  0
 10  9  2  0
 10 20  1  0
 30 10  1  0
 19 11  1  0
 11 26  1  0
 11 30  1  6
 13 12  1  0
 12 26  1  0
 14 13  1  0
 13 28  1  1
 14 19  1  0
 14 23  1  1
 15 23  1  0
 16 17  2  0
 19 29  1  6
 20 21  2  0
 23 25  1  0
 24 25  2  0
M  END
$$$$
