
     RDKit          3D

 30 33  0  0  0  0  0  0  0  0999 V2000
  -19.6414    6.2798    1.1787 C   0  0  0  0  0  0  0  0  0  0  0  0
  -15.2564    9.2441   -0.2012 C   0  0  0  0  0  0  0  0  0  0  0  0
  -11.9745   10.2853    1.2182 C   0  0  0  0  0  0  0  0  0  0  0  0
  -11.1319    9.3134    0.7082 C   0  0  0  0  0  0  0  0  0  0  0  0
  -12.9860    8.3259   -0.3764 C   0  0  0  0  0  0  0  0  0  0  0  0
  -27.2507    7.2036   -2.3426 C   0  0  0  0  0  0  0  0  0  0  0  0
  -25.9322    7.8734   -2.1281 C   0  0  0  0  0  0  0  0  0  0  0  0
  -25.8182    9.0715   -1.4567 C   0  0  0  0  0  0  0  0  0  0  0  0
  -24.5993    9.6901   -1.2604 C   0  0  0  0  0  0  0  0  0  0  0  0
  -23.4375    9.1223   -1.7365 C   0  0  0  0  0  0  0  0  0  0  0  0
  -20.6380    8.5682   -1.3836 C   0  0  1  0  0  0  0  0  0  0  0  0
  -19.8516    6.8634   -0.2014 C   0  0  2  0  0  0  0  0  0  0  0  0
  -18.6816    6.6968   -1.1071 C   0  0  1  0  0  0  0  0  0  0  0  0
  -18.2508    7.9480   -1.8182 C   0  0  1  0  0  0  0  0  0  0  0  0
  -15.9101    8.3558   -1.0248 C   0  0  0  0  0  0  0  0  0  0  0  0
  -13.8327    9.2695    0.1128 C   0  0  0  0  0  0  0  0  0  0  0  0
  -13.3191   10.2596    0.9191 C   0  0  0  0  0  0  0  0  0  0  0  0
  -11.6357    8.3135   -0.1029 C   0  0  0  0  0  0  0  0  0  0  0  0
  -19.3662    8.8858   -2.1333 C   0  0  1  0  0  0  0  0  0  0  0  0
  -23.5491    7.9243   -2.4083 C   0  0  0  0  0  0  0  0  0  0  0  0
  -24.7627    7.3035   -2.6061 C   0  0  0  0  0  0  0  0  0  0  0  0
   -9.7966    9.3072    0.9828 F   0  0  0  0  0  0  0  0  0  0  0  0
  -17.2128    8.6633   -1.0524 N   0  0  0  0  0  0  0  0  0  0  0  0
  -16.2257   10.0591    0.2336 N   0  0  0  0  0  0  0  0  0  0  0  0
  -17.3794    9.7067   -0.2760 N   0  0  0  0  0  0  0  0  0  0  0  0
  -20.2892    8.2068   -0.0984 O   0  0  0  0  0  0  0  0  0  0  0  0
  -20.4605    5.1626    1.3080 O   0  0  0  0  0  0  0  0  0  0  0  0
  -17.5467    6.1933   -0.4331 O   0  0  0  0  0  0  0  0  0  0  0  0
  -19.7071    8.8549   -3.5055 O   0  0  0  0  0  0  0  0  0  0  0  0
  -21.8234    9.9015   -1.5082 S   0  0  0  0  0  0  0  0  0  0  0  0
 12  1  1  1
  1 27  1  0
 15  2  2  0
  2 16  1  0
  2 24  1  0
  4  3  2  0
  3 17  1  0
 18  4  1  0
  4 22  1  0
 16  5  1  0
  5 18  2  0
  7  6  1  0
  8  7  2  0
  7 21  1  0
  9  8  1  0
 10  9  2  0
 10 20  1  0
 30 10  1  0
 19 11  1  0
 11 26  1  0
 11 30  1  1
 13 12  1  0
 12 26  1  0
 14 13  1  0
 13 28  1  1
 14 19  1  0
 14 23  1  1
 15 23  1  0
 16 17  2  0
 19 29  1  6
 20 21  2  0
 23 25  1  0
 24 25  2  0
M  END
$$$$
