
     RDKit          3D

 30 33  0  0  0  0  0  0  0  0999 V2000
  -20.2794    6.9605   -3.9564 C   0  0  0  0  0  0  0  0  0  0  0  0
  -14.9542    8.3291    0.3233 C   0  0  0  0  0  0  0  0  0  0  0  0
  -11.6531    9.1391    1.9563 C   0  0  0  0  0  0  0  0  0  0  0  0
  -11.1177   10.0477    1.0722 C   0  0  0  0  0  0  0  0  0  0  0  0
  -13.0908    9.8239   -0.2886 C   0  0  0  0  0  0  0  0  0  0  0  0
  -26.9473   11.3451   -1.2680 C   0  0  0  0  0  0  0  0  0  0  0  0
  -25.7654   10.5822   -0.7901 C   0  0  0  0  0  0  0  0  0  0  0  0
  -24.5459   10.7823   -1.4304 C   0  0  0  0  0  0  0  0  0  0  0  0
  -23.4068   10.1127   -1.0453 C   0  0  0  0  0  0  0  0  0  0  0  0
  -23.4941    9.2115    0.0185 C   0  0  0  0  0  0  0  0  0  0  0  0
  -20.7259    8.3945   -0.6626 C   0  0  1  0  0  0  0  0  0  0  0  0
  -19.9583    7.6770   -2.6681 C   0  0  2  0  0  0  0  0  0  0  0  0
  -18.5782    7.3284   -2.1525 C   0  0  1  0  0  0  0  0  0  0  0  0
  -18.3179    8.2186   -0.9642 C   0  0  1  0  0  0  0  0  0  0  0  0
  -16.0202    8.8929   -0.3507 C   0  0  0  0  0  0  0  0  0  0  0  0
  -13.6395    8.9140    0.5858 C   0  0  0  0  0  0  0  0  0  0  0  0
  -12.9108    8.5802    1.7039 C   0  0  0  0  0  0  0  0  0  0  0  0
  -11.8410   10.3880   -0.0508 C   0  0  0  0  0  0  0  0  0  0  0  0
  -19.4452    7.9405    0.0367 C   0  0  1  0  0  0  0  0  0  0  0  0
  -24.6856    8.9843    0.6803 C   0  0  0  0  0  0  0  0  0  0  0  0
  -25.8069    9.6894    0.2485 C   0  0  0  0  0  0  0  0  0  0  0  0
   -9.8989   10.5838    1.3249 F   0  0  0  0  0  0  0  0  0  0  0  0
  -17.0352    8.0155   -0.3643 N   0  0  0  0  0  0  0  0  0  0  0  0
  -15.3889    7.1106    0.6918 N   0  0  0  0  0  0  0  0  0  0  0  0
  -16.6280    6.9411    0.2747 N   0  0  0  0  0  0  0  0  0  0  0  0
  -20.9365    7.5243   -1.7188 O   0  0  0  0  0  0  0  0  0  0  0  0
  -21.3546    7.5063   -4.6227 O   0  0  0  0  0  0  0  0  0  0  0  0
  -18.5835    6.0018   -1.6942 O   0  0  0  0  0  0  0  0  0  0  0  0
  -19.2455    8.5734    1.2377 O   0  0  0  0  0  0  0  0  0  0  0  0
  -22.0498    8.3140    0.5623 S   0  0  0  0  0  0  0  0  0  0  0  0
 12  1  1  0
  1 27  1  6
 15  2  2  0
  2 16  1  0
  2 24  1  0
  4  3  2  0
  3 17  1  0
 18  4  1  0
  4 22  1  0
 16  5  1  0
  5 18  2  0
  6  7  1  6
  8  7  2  0
  7 21  1  0
  9  8  1  0
 10  9  2  0
 10 20  1  0
 30 10  1  0
 19 11  1  0
 11 26  1  0
 11 30  1  1
 13 12  1  0
 12 26  1  1
 14 13  1  0
 13 28  1  1
 14 19  1  0
 14 23  1  1
 15 23  1  0
 16 17  2  0
 19 29  1  1
 20 21  2  0
 23 25  1  0
 24 25  2  0
M  END
$$$$
