
     RDKit          3D

 30 33  0  0  0  0  0  0  0  0999 V2000
  -20.9855    5.1458   -1.0164 C   0  0  0  0  0  0  0  0  0  0  0  0
  -14.9385    8.6773   -0.1786 C   0  0  0  0  0  0  0  0  0  0  0  0
  -12.2275   10.6463   -1.9087 C   0  0  0  0  0  0  0  0  0  0  0  0
  -11.1373   10.3847   -1.1106 C   0  0  0  0  0  0  0  0  0  0  0  0
  -12.5398    9.0133    0.2847 C   0  0  0  0  0  0  0  0  0  0  0  0
  -27.2734   10.0144   -2.2891 C   0  0  0  0  0  0  0  0  0  0  0  0
  -25.9106   10.0080   -1.6975 C   0  0  0  0  0  0  0  0  0  0  0  0
  -25.7799    9.7276   -0.3405 C   0  0  0  0  0  0  0  0  0  0  0  0
  -24.5514    9.7032    0.2794 C   0  0  0  0  0  0  0  0  0  0  0  0
  -23.4150    9.9693   -0.4883 C   0  0  0  0  0  0  0  0  0  0  0  0
  -20.7251    8.7214   -0.5143 C   0  0  1  0  0  0  0  0  0  0  0  0
  -20.3896    6.5313   -0.9805 C   0  0  2  0  0  0  0  0  0  0  0  0
  -18.9563    6.5212   -0.4929 C   0  0  1  0  0  0  0  0  0  0  0  0
  -18.4302    7.9247   -0.6537 C   0  0  1  0  0  0  0  0  0  0  0  0
  -16.1174    8.7638   -0.8935 C   0  0  0  0  0  0  0  0  0  0  0  0
  -13.6393    9.2654   -0.5035 C   0  0  0  0  0  0  0  0  0  0  0  0
  -13.4697   10.0831   -1.5968 C   0  0  0  0  0  0  0  0  0  0  0  0
  -11.2979    9.5664   -0.0131 C   0  0  0  0  0  0  0  0  0  0  0  0
  -19.3598    8.8289    0.1639 C   0  0  1  0  0  0  0  0  0  0  0  0
  -23.5019   10.2521   -1.8380 C   0  0  0  0  0  0  0  0  0  0  0  0
  -24.7706   10.2633   -2.4135 C   0  0  0  0  0  0  0  0  0  0  0  0
   -9.9379   10.9347   -1.4206 F   0  0  0  0  0  0  0  0  0  0  0  0
  -17.0691    8.0786   -0.2414 N   0  0  0  0  0  0  0  0  0  0  0  0
  -15.2442    7.9265    0.8949 N   0  0  0  0  0  0  0  0  0  0  0  0
  -16.5148    7.5794    0.8413 N   0  0  0  0  0  0  0  0  0  0  0  0
  -21.1763    7.4291   -0.3051 O   0  0  0  0  0  0  0  0  0  0  0  0
  -20.3219    4.2962   -1.8741 O   0  0  0  0  0  0  0  0  0  0  0  0
  -18.9423    6.2186    0.8775 O   0  0  0  0  0  0  0  0  0  0  0  0
  -18.9038   10.1212    0.2328 O   0  0  0  0  0  0  0  0  0  0  0  0
  -21.7948    9.9518    0.2611 S   0  0  0  0  0  0  0  0  0  0  0  0
 12  1  1  0
  1 27  1  6
 15  2  2  0
  2 16  1  0
  2 24  1  0
  4  3  2  0
  3 17  1  0
 18  4  1  0
  4 22  1  0
 16  5  1  0
  5 18  2  0
  6  7  1  6
  8  7  2  0
  7 21  1  0
  9  8  1  0
 10  9  2  0
 10 20  1  0
 30 10  1  0
 19 11  1  0
 11 26  1  0
 11 30  1  1
 13 12  1  0
 12 26  1  1
 14 13  1  0
 13 28  1  1
 14 19  1  0
 14 23  1  1
 15 23  1  0
 16 17  2  0
 19 29  1  6
 20 21  2  0
 23 25  1  0
 24 25  2  0
M  END
$$$$
