
     RDKit          3D

 30 33  0  0  0  0  0  0  0  0999 V2000
  -19.7665    5.9033    1.1528 C   0  0  0  0  0  0  0  0  0  0  0  0
  -15.0777    8.5487   -0.0895 C   0  0  0  0  0  0  0  0  0  0  0  0
  -11.4055    7.9382    0.0174 C   0  0  0  0  0  0  0  0  0  0  0  0
  -11.0194    8.7575    1.0635 C   0  0  0  0  0  0  0  0  0  0  0  0
  -13.2738    9.4166    1.3322 C   0  0  0  0  0  0  0  0  0  0  0  0
  -26.3588    6.7466   -4.8321 C   0  0  0  0  0  0  0  0  0  0  0  0
  -25.1424    7.3409   -4.1995 C   0  0  0  0  0  0  0  0  0  0  0  0
  -23.9170    6.7108   -4.2299 C   0  0  0  0  0  0  0  0  0  0  0  0
  -22.7940    7.2605   -3.6438 C   0  0  0  0  0  0  0  0  0  0  0  0
  -22.8608    8.4761   -2.9984 C   0  0  0  0  0  0  0  0  0  0  0  0
  -20.3274    7.8783   -1.7764 C   0  0  1  0  0  0  0  0  0  0  0  0
  -19.7788    6.3120   -0.3040 C   0  0  2  0  0  0  0  0  0  0  0  0
  -18.5189    5.9874   -1.0281 C   0  0  1  0  0  0  0  0  0  0  0  0
  -17.9410    7.1201   -1.8280 C   0  0  1  0  0  0  0  0  0  0  0  0
  -15.6619    7.6131   -0.9131 C   0  0  0  0  0  0  0  0  0  0  0  0
  -13.6767    8.6193    0.3081 C   0  0  0  0  0  0  0  0  0  0  0  0
  -12.7301    7.8724   -0.3555 C   0  0  0  0  0  0  0  0  0  0  0  0
  -11.9607    9.5128    1.7380 C   0  0  0  0  0  0  0  0  0  0  0  0
  -18.9599    8.0500   -2.3937 C   0  0  1  0  0  0  0  0  0  0  0  0
  -24.0850    9.1080   -2.9665 C   0  0  0  0  0  0  0  0  0  0  0  0
  -25.2078    8.5636   -3.5501 C   0  0  0  0  0  0  0  0  0  0  0  0
   -9.7182    8.8478    1.4600 F   0  0  0  0  0  0  0  0  0  0  0  0
  -16.9664    7.8893   -1.0317 N   0  0  0  0  0  0  0  0  0  0  0  0
  -16.0881    9.3582    0.2519 N   0  0  0  0  0  0  0  0  0  0  0  0
  -17.2013    8.9592   -0.3110 N   0  0  0  0  0  0  0  0  0  0  0  0
  -20.1547    7.6726   -0.4229 O   0  0  0  0  0  0  0  0  0  0  0  0
  -20.8820    5.1065    1.3906 O   0  0  0  0  0  0  0  0  0  0  0  0
  -17.5010    5.5335   -0.1601 O   0  0  0  0  0  0  0  0  0  0  0  0
  -19.1348    7.8554   -3.7835 O   0  0  0  0  0  0  0  0  0  0  0  0
  -21.4179    9.2272   -2.2120 S   0  0  0  0  0  0  0  0  0  0  0  0
 12  1  1  1
  1 27  1  0
 15  2  2  0
  2 16  1  0
  2 24  1  0
  4  3  2  0
  3 17  1  0
 18  4  1  0
  4 22  1  0
 16  5  1  0
  5 18  2  0
  7  6  1  0
  8  7  2  0
  7 21  1  0
  9  8  1  0
 10  9  2  0
 10 20  1  0
 30 10  1  0
 19 11  1  0
 11 26  1  0
 11 30  1  1
 13 12  1  0
 12 26  1  0
 14 13  1  0
 13 28  1  1
 14 19  1  0
 14 23  1  1
 15 23  1  0
 16 17  2  0
 19 29  1  6
 20 21  2  0
 23 25  1  0
 24 25  2  0
M  END
$$$$
