
     RDKit          3D

 30 33  0  0  0  0  0  0  0  0999 V2000
  -19.0433    8.8501   -4.5738 C   0  0  0  0  0  0  0  0  0  0  0  0
  -15.4212    8.5779   -0.1583 C   0  0  0  0  0  0  0  0  0  0  0  0
  -11.7883    8.1399    0.5345 C   0  0  0  0  0  0  0  0  0  0  0  0
  -11.6651    8.7593    1.7656 C   0  0  0  0  0  0  0  0  0  0  0  0
  -13.9788    9.2422    1.7143 C   0  0  0  0  0  0  0  0  0  0  0  0
  -27.2065    9.8517    0.4213 C   0  0  0  0  0  0  0  0  0  0  0  0
  -25.8961    9.2029    0.1132 C   0  0  0  0  0  0  0  0  0  0  0  0
  -25.1375    9.5635   -0.9795 C   0  0  0  0  0  0  0  0  0  0  0  0
  -23.9273    8.9623   -1.2639 C   0  0  0  0  0  0  0  0  0  0  0  0
  -23.4291    7.9659   -0.4529 C   0  0  0  0  0  0  0  0  0  0  0  0
  -20.7780    8.4010   -1.4780 C   0  0  1  0  0  0  0  0  0  0  0  0
  -19.7086    9.1850   -3.2569 C   0  0  2  0  0  0  0  0  0  0  0  0
  -18.9582   10.1800   -2.4422 C   0  0  1  0  0  0  0  0  0  0  0  0
  -18.7485    9.7908   -1.0065 C   0  0  1  0  0  0  0  0  0  0  0  0
  -16.4426    9.4969   -0.0734 C   0  0  0  0  0  0  0  0  0  0  0  0
  -14.1242    8.6392    0.5052 C   0  0  0  0  0  0  0  0  0  0  0  0
  -13.0152    8.0824   -0.0898 C   0  0  0  0  0  0  0  0  0  0  0  0
  -12.7717    9.3225    2.3736 C   0  0  0  0  0  0  0  0  0  0  0  0
  -19.8501    8.9679   -0.4300 C   0  0  1  0  0  0  0  0  0  0  0  0
  -24.1859    7.6035    0.6402 C   0  0  0  0  0  0  0  0  0  0  0  0
  -25.3934    8.2007    0.9280 C   0  0  0  0  0  0  0  0  0  0  0  0
  -10.4675    8.8351    2.4125 F   0  0  0  0  0  0  0  0  0  0  0  0
  -17.4665    9.0831   -0.8301 N   0  0  0  0  0  0  0  0  0  0  0  0
  -15.8978    7.6365   -0.9826 N   0  0  0  0  0  0  0  0  0  0  0  0
  -17.1087    7.9451   -1.3744 N   0  0  0  0  0  0  0  0  0  0  0  0
  -20.0062    7.9954   -2.5475 O   0  0  0  0  0  0  0  0  0  0  0  0
  -19.9779    9.0234   -5.5899 O   0  0  0  0  0  0  0  0  0  0  0  0
  -17.6848   10.4671   -2.9824 O   0  0  0  0  0  0  0  0  0  0  0  0
  -20.6671    9.7219    0.4441 O   0  0  0  0  0  0  0  0  0  0  0  0
  -21.8542    7.1480   -0.7926 S   0  0  0  0  0  0  0  0  0  0  0  0
 12  1  1  6
  1 27  1  0
 15  2  2  0
  2 16  1  0
  2 24  1  0
  4  3  2  0
  3 17  1  0
 18  4  1  0
  4 22  1  0
 16  5  1  0
  5 18  2  0
  7  6  1  0
  8  7  2  0
  7 21  1  0
  9  8  1  0
 10  9  2  0
 10 20  1  0
 30 10  1  0
 19 11  1  0
 11 26  1  0
 11 30  1  1
 13 12  1  0
 12 26  1  0
 14 13  1  0
 13 28  1  6
 14 19  1  0
 14 23  1  6
 15 23  1  0
 16 17  2  0
 19 29  1  1
 20 21  2  0
 23 25  1  0
 24 25  2  0
M  END
$$$$
