
     RDKit          3D

 30 33  0  0  0  0  0  0  0  0999 V2000
  -20.4995   11.6255   -0.0981 C   0  0  0  0  0  0  0  0  0  0  0  0
  -15.7958    8.5896    0.0299 C   0  0  0  0  0  0  0  0  0  0  0  0
  -12.1598    9.3003    0.4098 C   0  0  0  0  0  0  0  0  0  0  0  0
  -11.7960    8.3737    1.3709 C   0  0  0  0  0  0  0  0  0  0  0  0
  -14.0339    7.6140    1.4343 C   0  0  0  0  0  0  0  0  0  0  0  0
  -27.6732    6.5997   -2.4999 C   0  0  0  0  0  0  0  0  0  0  0  0
  -26.2141    6.8963   -2.6267 C   0  0  0  0  0  0  0  0  0  0  0  0
  -25.7130    8.1757   -2.5188 C   0  0  0  0  0  0  0  0  0  0  0  0
  -24.3646    8.4486   -2.6376 C   0  0  0  0  0  0  0  0  0  0  0  0
  -23.4599    7.4360   -2.8720 C   0  0  0  0  0  0  0  0  0  0  0  0
  -21.1395    8.3806   -1.4607 C   0  0  1  0  0  0  0  0  0  0  0  0
  -20.8132   10.1465   -0.1577 C   0  0  2  0  0  0  0  0  0  0  0  0
  -20.0843    9.3379    0.8580 C   0  0  1  0  0  0  0  0  0  0  0  0
  -19.3952    8.1175    0.3172 C   0  0  1  0  0  0  0  0  0  0  0  0
  -16.9214    8.1763    0.7060 C   0  0  0  0  0  0  0  0  0  0  0  0
  -14.4146    8.5155    0.4914 C   0  0  0  0  0  0  0  0  0  0  0  0
  -13.4653    9.3675   -0.0254 C   0  0  0  0  0  0  0  0  0  0  0  0
  -12.7404    7.5124    1.8979 C   0  0  0  0  0  0  0  0  0  0  0  0
  -20.0888    7.4888   -0.8433 C   0  0  1  0  0  0  0  0  0  0  0  0
  -23.9586    6.1559   -2.9805 C   0  0  0  0  0  0  0  0  0  0  0  0
  -25.3027    5.8790   -2.8623 C   0  0  0  0  0  0  0  0  0  0  0  0
  -10.5142    8.2785    1.8251 F   0  0  0  0  0  0  0  0  0  0  0  0
  -17.9987    8.4162   -0.0518 N   0  0  0  0  0  0  0  0  0  0  0  0
  -16.2685    9.0681   -1.1279 N   0  0  0  0  0  0  0  0  0  0  0  0
  -17.5732    8.9607   -1.1660 N   0  0  0  0  0  0  0  0  0  0  0  0
  -20.6405    9.6670   -1.4795 O   0  0  0  0  0  0  0  0  0  0  0  0
  -21.4671   12.2441    0.6874 O   0  0  0  0  0  0  0  0  0  0  0  0
  -19.1084   10.0920    1.5469 O   0  0  0  0  0  0  0  0  0  0  0  0
  -20.7585    6.2992   -0.4736 O   0  0  0  0  0  0  0  0  0  0  0  0
  -21.6887    7.7500   -3.0415 S   0  0  0  0  0  0  0  0  0  0  0  0
 12  1  1  6
  1 27  1  0
 15  2  2  0
  2 16  1  0
  2 24  1  0
  4  3  2  0
  3 17  1  0
 18  4  1  0
  4 22  1  0
 16  5  1  0
  5 18  2  0
  7  6  1  0
  8  7  2  0
  7 21  1  0
  9  8  1  0
 10  9  2  0
 10 20  1  0
 30 10  1  0
 19 11  1  0
 11 26  1  0
 11 30  1  6
 13 12  1  0
 12 26  1  0
 14 13  1  0
 13 28  1  6
 14 19  1  0
 14 23  1  6
 15 23  1  0
 16 17  2  0
 19 29  1  1
 20 21  2  0
 23 25  1  0
 24 25  2  0
M  END
$$$$
