
     RDKit          3D

 30 33  0  0  0  0  0  0  0  0999 V2000
  -20.5532   11.2148    0.5378 C   0  0  0  0  0  0  0  0  0  0  0  0
  -15.5420    8.7957   -0.0190 C   0  0  0  0  0  0  0  0  0  0  0  0
  -12.6243    8.5086    2.2777 C   0  0  0  0  0  0  0  0  0  0  0  0
  -11.5654    8.6446    1.3975 C   0  0  0  0  0  0  0  0  0  0  0  0
  -13.1138    8.8752   -0.3740 C   0  0  0  0  0  0  0  0  0  0  0  0
  -27.2100    6.8434   -3.5515 C   0  0  0  0  0  0  0  0  0  0  0  0
  -25.7550    7.1827   -3.5220 C   0  0  0  0  0  0  0  0  0  0  0  0
  -24.8575    6.4979   -2.7314 C   0  0  0  0  0  0  0  0  0  0  0  0
  -23.5134    6.8133   -2.7041 C   0  0  0  0  0  0  0  0  0  0  0  0
  -23.0157    7.8393   -3.4777 C   0  0  0  0  0  0  0  0  0  0  0  0
  -20.8088    8.4747   -1.7473 C   0  0  1  0  0  0  0  0  0  0  0  0
  -20.6977    9.7965    0.0312 C   0  0  2  0  0  0  0  0  0  0  0  0
  -19.8938    8.8026    0.7946 C   0  0  1  0  0  0  0  0  0  0  0  0
  -19.0657    7.8773   -0.0509 C   0  0  1  0  0  0  0  0  0  0  0  0
  -16.6228    8.0906    0.4600 C   0  0  0  0  0  0  0  0  0  0  0  0
  -14.1697    8.7442    0.4713 C   0  0  0  0  0  0  0  0  0  0  0  0
  -13.9200    8.5588    1.8120 C   0  0  0  0  0  0  0  0  0  0  0  0
  -11.8031    8.8312    0.0484 C   0  0  0  0  0  0  0  0  0  0  0  0
  -19.6713    7.5540   -1.3745 C   0  0  1  0  0  0  0  0  0  0  0  0
  -23.9113    8.5256   -4.2689 C   0  0  0  0  0  0  0  0  0  0  0  0
  -25.2527    8.2142   -4.2996 C   0  0  0  0  0  0  0  0  0  0  0  0
  -10.2708    8.6001    1.8224 F   0  0  0  0  0  0  0  0  0  0  0  0
  -17.7077    8.4161   -0.2537 N   0  0  0  0  0  0  0  0  0  0  0  0
  -16.0477    9.5261   -1.0208 N   0  0  0  0  0  0  0  0  0  0  0  0
  -17.3299    9.2940   -1.1512 N   0  0  0  0  0  0  0  0  0  0  0  0
  -20.4576    9.7529   -1.3642 O   0  0  0  0  0  0  0  0  0  0  0  0
  -21.8014   11.6518    0.9700 O   0  0  0  0  0  0  0  0  0  0  0  0
  -19.0166    9.4147    1.7174 O   0  0  0  0  0  0  0  0  0  0  0  0
  -20.2069    6.2453   -1.4016 O   0  0  0  0  0  0  0  0  0  0  0  0
  -21.2660    8.2897   -3.4663 S   0  0  0  0  0  0  0  0  0  0  0  0
 12  1  1  1
  1 27  1  0
 15  2  2  0
  2 16  1  0
  2 24  1  0
  4  3  2  0
  3 17  1  0
 18  4  1  0
  4 22  1  0
 16  5  1  0
  5 18  2  0
  7  6  1  0
  8  7  2  0
  7 21  1  0
  9  8  1  0
 10  9  2  0
 10 20  1  0
 30 10  1  0
 19 11  1  0
 11 26  1  0
 11 30  1  6
 13 12  1  0
 12 26  1  0
 14 13  1  0
 13 28  1  1
 14 19  1  0
 14 23  1  6
 15 23  1  0
 16 17  2  0
 19 29  1  1
 20 21  2  0
 23 25  1  0
 24 25  2  0
M  END
$$$$
