
     RDKit          3D

 30 33  0  0  0  0  0  0  0  0999 V2000
  -20.7858    5.2253   -1.3896 C   0  0  0  0  0  0  0  0  0  0  0  0
  -14.7717    8.5650    0.2354 C   0  0  0  0  0  0  0  0  0  0  0  0
  -11.1015    9.3395    0.6227 C   0  0  0  0  0  0  0  0  0  0  0  0
  -10.9680   10.4650   -0.1579 C   0  0  0  0  0  0  0  0  0  0  0  0
  -13.3163   10.3369   -0.6718 C   0  0  0  0  0  0  0  0  0  0  0  0
  -27.1342    9.7943   -2.1247 C   0  0  0  0  0  0  0  0  0  0  0  0
  -25.7600    9.8325   -1.5613 C   0  0  0  0  0  0  0  0  0  0  0  0
  -25.5789    9.4573   -0.2333 C   0  0  0  0  0  0  0  0  0  0  0  0
  -24.3368    9.4665    0.3595 C   0  0  0  0  0  0  0  0  0  0  0  0
  -23.2388    9.8658   -0.4062 C   0  0  0  0  0  0  0  0  0  0  0  0
  -20.5031    8.7265   -0.5141 C   0  0  1  0  0  0  0  0  0  0  0  0
  -20.1716    6.5865   -1.1751 C   0  0  2  0  0  0  0  0  0  0  0  0
  -18.7753    6.4955   -0.5973 C   0  0  1  0  0  0  0  0  0  0  0  0
  -18.2170    7.8957   -0.5809 C   0  0  1  0  0  0  0  0  0  0  0  0
  -15.9086    8.7777   -0.5201 C   0  0  0  0  0  0  0  0  0  0  0  0
  -13.4659    9.2109    0.1050 C   0  0  0  0  0  0  0  0  0  0  0  0
  -12.3513    8.7225    0.7466 C   0  0  0  0  0  0  0  0  0  0  0  0
  -12.0796   10.9613   -0.8045 C   0  0  0  0  0  0  0  0  0  0  0  0
  -19.1855    8.7351    0.2602 C   0  0  1  0  0  0  0  0  0  0  0  0
  -23.3761   10.2456   -1.7277 C   0  0  0  0  0  0  0  0  0  0  0  0
  -24.6563   10.2173   -2.2763 C   0  0  0  0  0  0  0  0  0  0  0  0
   -9.7535   11.0558   -0.2720 F   0  0  0  0  0  0  0  0  0  0  0  0
  -16.8848    7.9770   -0.0662 N   0  0  0  0  0  0  0  0  0  0  0  0
  -15.1265    7.6242    1.1290 N   0  0  0  0  0  0  0  0  0  0  0  0
  -16.3859    7.2863    0.9352 N   0  0  0  0  0  0  0  0  0  0  0  0
  -20.9881    7.4304   -0.4663 O   0  0  0  0  0  0  0  0  0  0  0  0
  -21.9501    5.2694   -2.1247 O   0  0  0  0  0  0  0  0  0  0  0  0
  -18.8593    6.0580    0.7336 O   0  0  0  0  0  0  0  0  0  0  0  0
  -18.7147   10.0035    0.4888 O   0  0  0  0  0  0  0  0  0  0  0  0
  -21.6033    9.8978    0.3087 S   0  0  0  0  0  0  0  0  0  0  0  0
 12  1  1  0
  1 27  1  6
 15  2  2  0
  2 16  1  0
  2 24  1  0
  4  3  2  0
  3 17  1  0
 18  4  1  0
  4 22  1  0
 16  5  1  0
  5 18  2  0
  6  7  1  6
  8  7  2  0
  7 21  1  0
  9  8  1  0
 10  9  2  0
 10 20  1  0
 30 10  1  0
 19 11  1  0
 11 26  1  0
 11 30  1  1
 13 12  1  0
 12 26  1  1
 14 13  1  0
 13 28  1  1
 14 19  1  0
 14 23  1  1
 15 23  1  0
 16 17  2  0
 19 29  1  6
 20 21  2  0
 23 25  1  0
 24 25  2  0
M  END
$$$$
