
     RDKit          3D

 30 33  0  0  0  0  0  0  0  0999 V2000
  -20.4131    4.9660   -0.4661 C   0  0  0  0  0  0  0  0  0  0  0  0
  -14.9829    9.0442   -0.5994 C   0  0  0  0  0  0  0  0  0  0  0  0
  -12.5954    9.1585    2.3173 C   0  0  0  0  0  0  0  0  0  0  0  0
  -11.5742    9.9318    1.8143 C   0  0  0  0  0  0  0  0  0  0  0  0
  -12.7889   10.1162   -0.2558 C   0  0  0  0  0  0  0  0  0  0  0  0
  -27.5691    8.8699   -1.2413 C   0  0  0  0  0  0  0  0  0  0  0  0
  -26.1492    9.1075   -0.8742 C   0  0  0  0  0  0  0  0  0  0  0  0
  -25.1694    8.8701   -1.8337 C   0  0  0  0  0  0  0  0  0  0  0  0
  -23.8331    9.0669   -1.5691 C   0  0  0  0  0  0  0  0  0  0  0  0
  -23.4674    9.5173   -0.2983 C   0  0  0  0  0  0  0  0  0  0  0  0
  -20.6858    8.5686   -0.6941 C   0  0  1  0  0  0  0  0  0  0  0  0
  -20.0820    6.3910   -0.8347 C   0  0  2  0  0  0  0  0  0  0  0  0
  -18.5967    6.6706   -0.7462 C   0  0  1  0  0  0  0  0  0  0  0  0
  -18.3809    8.0614   -1.2862 C   0  0  1  0  0  0  0  0  0  0  0  0
  -16.2402    8.6400   -0.1940 C   0  0  0  0  0  0  0  0  0  0  0  0
  -13.8181    9.3445    0.2327 C   0  0  0  0  0  0  0  0  0  0  0  0
  -13.7091    8.8720    1.5202 C   0  0  0  0  0  0  0  0  0  0  0  0
  -11.6749   10.4095    0.5252 C   0  0  0  0  0  0  0  0  0  0  0  0
  -19.2425    8.9946   -0.4280 C   0  0  1  0  0  0  0  0  0  0  0  0
  -24.4092    9.7647    0.6820 C   0  0  0  0  0  0  0  0  0  0  0  0
  -25.7471    9.5485    0.3592 C   0  0  0  0  0  0  0  0  0  0  0  0
  -10.4994   10.2042    2.5938 F   0  0  0  0  0  0  0  0  0  0  0  0
  -17.0113    8.4741   -1.2794 N   0  0  0  0  0  0  0  0  0  0  0  0
  -15.0592    9.1037   -1.9411 N   0  0  0  0  0  0  0  0  0  0  0  0
  -16.2721    8.7616   -2.3281 N   0  0  0  0  0  0  0  0  0  0  0  0
  -20.8387    7.3056   -0.1475 O   0  0  0  0  0  0  0  0  0  0  0  0
  -21.5538    4.8587    0.2988 O   0  0  0  0  0  0  0  0  0  0  0  0
  -18.2128    6.6768    0.6038 O   0  0  0  0  0  0  0  0  0  0  0  0
  -19.0210   10.3186   -0.7120 O   0  0  0  0  0  0  0  0  0  0  0  0
  -21.7495    9.7905    0.1029 S   0  0  0  0  0  0  0  0  0  0  0  0
 12  1  1  0
  1 27  1  6
 15  2  2  0
  2 16  1  0
  2 24  1  0
  4  3  2  0
  3 17  1  0
 18  4  1  0
  4 22  1  0
 16  5  1  0
  5 18  2  0
  6  7  1  6
  8  7  2  0
  7 21  1  0
  9  8  1  0
 10  9  2  0
 10 20  1  0
 30 10  1  0
 19 11  1  0
 11 26  1  0
 11 30  1  1
 13 12  1  0
 12 26  1  1
 14 13  1  0
 13 28  1  1
 14 19  1  0
 14 23  1  1
 15 23  1  0
 16 17  2  0
 19 29  1  6
 20 21  2  0
 23 25  1  0
 24 25  2  0
M  END
$$$$
