
     RDKit          3D

 30 33  0  0  0  0  0  0  0  0999 V2000
  -20.2458    5.1304    0.5435 C   0  0  0  0  0  0  0  0  0  0  0  0
  -14.6801    8.7347   -0.2989 C   0  0  0  0  0  0  0  0  0  0  0  0
  -12.2815    8.5679    2.6060 C   0  0  0  0  0  0  0  0  0  0  0  0
  -11.1748    9.2056    2.0936 C   0  0  0  0  0  0  0  0  0  0  0  0
  -12.3682    9.5279    0.0280 C   0  0  0  0  0  0  0  0  0  0  0  0
  -27.0645    8.5128   -2.8770 C   0  0  0  0  0  0  0  0  0  0  0  0
  -25.7025    8.8049   -2.3603 C   0  0  0  0  0  0  0  0  0  0  0  0
  -25.5372    9.8943   -1.5100 C   0  0  0  0  0  0  0  0  0  0  0  0
  -24.3071   10.2283   -0.9909 C   0  0  0  0  0  0  0  0  0  0  0  0
  -23.2051    9.4425   -1.3366 C   0  0  0  0  0  0  0  0  0  0  0  0
  -20.4471    8.4415   -0.9060 C   0  0  1  0  0  0  0  0  0  0  0  0
  -19.8562    6.3603   -0.2387 C   0  0  2  0  0  0  0  0  0  0  0  0
  -18.3892    6.6968   -0.0752 C   0  0  1  0  0  0  0  0  0  0  0  0
  -18.0938    7.8338   -1.0198 C   0  0  1  0  0  0  0  0  0  0  0  0
  -15.9130    8.2345    0.0730 C   0  0  0  0  0  0  0  0  0  0  0  0
  -13.4827    8.8926    0.5260 C   0  0  0  0  0  0  0  0  0  0  0  0
  -13.4263    8.4174    1.8158 C   0  0  0  0  0  0  0  0  0  0  0  0
  -11.2224    9.6850    0.8021 C   0  0  0  0  0  0  0  0  0  0  0  0
  -19.0415    8.9740   -0.6302 C   0  0  1  0  0  0  0  0  0  0  0  0
  -23.3269    8.3528   -2.1775 C   0  0  0  0  0  0  0  0  0  0  0  0
  -24.5955    8.0608   -2.6737 C   0  0  0  0  0  0  0  0  0  0  0  0
  -10.0704    9.3467    2.8664 F   0  0  0  0  0  0  0  0  0  0  0  0
  -16.7302    8.2652   -0.9908 N   0  0  0  0  0  0  0  0  0  0  0  0
  -14.8175    9.0500   -1.5994 N   0  0  0  0  0  0  0  0  0  0  0  0
  -16.0425    8.7642   -1.9941 N   0  0  0  0  0  0  0  0  0  0  0  0
  -20.6794    7.4289    0.0094 O   0  0  0  0  0  0  0  0  0  0  0  0
  -21.4131    4.5534    0.0936 O   0  0  0  0  0  0  0  0  0  0  0  0
  -18.1706    7.1637    1.2302 O   0  0  0  0  0  0  0  0  0  0  0  0
  -18.7720   10.1336   -1.3125 O   0  0  0  0  0  0  0  0  0  0  0  0
  -21.5847    9.8274   -0.6940 S   0  0  0  0  0  0  0  0  0  0  0  0
 12  1  1  0
  1 27  1  6
 15  2  2  0
  2 16  1  0
  2 24  1  0
  4  3  2  0
  3 17  1  0
 18  4  1  0
  4 22  1  0
 16  5  1  0
  5 18  2  0
  6  7  1  6
  8  7  2  0
  7 21  1  0
  9  8  1  0
 10  9  2  0
 10 20  1  0
 30 10  1  0
 19 11  1  0
 11 26  1  0
 11 30  1  1
 13 12  1  0
 12 26  1  1
 14 13  1  0
 13 28  1  1
 14 19  1  0
 14 23  1  1
 15 23  1  0
 16 17  2  0
 19 29  1  6
 20 21  2  0
 23 25  1  0
 24 25  2  0
M  END
$$$$
