
     RDKit          3D

 30 33  0  0  0  0  0  0  0  0999 V2000
  -20.7481    5.9209   -0.2007 C   0  0  0  0  0  0  0  0  0  0  0  0
  -14.6545    9.1474    0.6152 C   0  0  0  0  0  0  0  0  0  0  0  0
  -10.9980    8.9383   -0.2829 C   0  0  0  0  0  0  0  0  0  0  0  0
  -10.4042    8.9227    0.9585 C   0  0  0  0  0  0  0  0  0  0  0  0
  -12.5894    9.0539    1.9597 C   0  0  0  0  0  0  0  0  0  0  0  0
  -22.3088    9.3486   -8.4771 C   0  0  0  0  0  0  0  0  0  0  0  0
  -21.9398    9.5453   -7.0514 C   0  0  0  0  0  0  0  0  0  0  0  0
  -22.1745   10.7892   -6.4730 C   0  0  0  0  0  0  0  0  0  0  0  0
  -21.8599   11.0481   -5.1584 C   0  0  0  0  0  0  0  0  0  0  0  0
  -21.2902   10.0241   -4.3980 C   0  0  0  0  0  0  0  0  0  0  0  0
  -19.8931    8.9302   -2.0220 C   0  0  1  0  0  0  0  0  0  0  0  0
  -19.9096    7.0095   -0.8235 C   0  0  2  0  0  0  0  0  0  0  0  0
  -18.7471    7.4078    0.0608 C   0  0  1  0  0  0  0  0  0  0  0  0
  -17.9058    8.3748   -0.7325 C   0  0  1  0  0  0  0  0  0  0  0  0
  -15.4796    8.4837   -0.2720 C   0  0  0  0  0  0  0  0  0  0  0  0
  -13.1981    9.0703    0.7257 C   0  0  0  0  0  0  0  0  0  0  0  0
  -12.3914    9.0121   -0.3872 C   0  0  0  0  0  0  0  0  0  0  0  0
  -11.2048    8.9808    2.0791 C   0  0  0  0  0  0  0  0  0  0  0  0
  -18.8289    9.5391   -1.1097 C   0  0  1  0  0  0  0  0  0  0  0  0
  -21.0411    8.7753   -4.9346 C   0  0  0  0  0  0  0  0  0  0  0  0
  -21.3795    8.5689   -6.2702 C   0  0  0  0  0  0  0  0  0  0  0  0
   -9.0539    8.8511    1.0497 F   0  0  0  0  0  0  0  0  0  0  0  0
  -16.7500    8.8409   -0.0302 N   0  0  0  0  0  0  0  0  0  0  0  0
  -15.4876    9.8899    1.3664 N   0  0  0  0  0  0  0  0  0  0  0  0
  -16.7294    9.6954    0.9689 N   0  0  0  0  0  0  0  0  0  0  0  0
  -20.6568    8.0825   -1.2376 O   0  0  0  0  0  0  0  0  0  0  0  0
  -21.7183    5.4358   -1.0500 O   0  0  0  0  0  0  0  0  0  0  0  0
  -19.2400    8.0958    1.1805 O   0  0  0  0  0  0  0  0  0  0  0  0
  -18.1502   10.5723   -1.7050 O   0  0  0  0  0  0  0  0  0  0  0  0
  -20.8610   10.3013   -2.6875 S   0  0  0  0  0  0  0  0  0  0  0  0
 12  1  1  0
  1 27  1  6
 15  2  2  0
  2 16  1  0
  2 24  1  0
  4  3  2  0
  3 17  1  0
 18  4  1  0
  4 22  1  0
 16  5  1  0
  5 18  2  0
  6  7  1  6
  8  7  2  0
  7 21  1  0
  9  8  1  0
 10  9  2  0
 10 20  1  0
 30 10  1  0
 19 11  1  0
 11 26  1  0
 11 30  1  1
 13 12  1  0
 12 26  1  1
 14 13  1  0
 13 28  1  1
 14 19  1  0
 14 23  1  1
 15 23  1  0
 16 17  2  0
 19 29  1  6
 20 21  2  0
 23 25  1  0
 24 25  2  0
M  END
$$$$
