
     RDKit          3D

 30 33  0  0  0  0  0  0  0  0999 V2000
  -20.7660    4.8458   -0.6478 C   0  0  0  0  0  0  0  0  0  0  0  0
  -14.7911    8.5300   -0.1027 C   0  0  0  0  0  0  0  0  0  0  0  0
  -11.0562    8.8962   -0.4720 C   0  0  0  0  0  0  0  0  0  0  0  0
  -10.9591   10.0517   -1.2133 C   0  0  0  0  0  0  0  0  0  0  0  0
  -13.3618   10.1997   -1.2208 C   0  0  0  0  0  0  0  0  0  0  0  0
  -26.8794    9.7499   -3.1320 C   0  0  0  0  0  0  0  0  0  0  0  0
  -25.6237    9.7601   -2.3380 C   0  0  0  0  0  0  0  0  0  0  0  0
  -24.4203    9.5374   -3.0008 C   0  0  0  0  0  0  0  0  0  0  0  0
  -23.2162    9.5317   -2.3342 C   0  0  0  0  0  0  0  0  0  0  0  0
  -23.2195    9.7572   -0.9556 C   0  0  0  0  0  0  0  0  0  0  0  0
  -20.5749    8.4607   -0.6105 C   0  0  1  0  0  0  0  0  0  0  0  0
  -20.1919    6.2352   -0.7747 C   0  0  2  0  0  0  0  0  0  0  0  0
  -18.7762    6.3159   -0.2444 C   0  0  1  0  0  0  0  0  0  0  0  0
  -18.2653    7.6961   -0.5707 C   0  0  1  0  0  0  0  0  0  0  0  0
  -15.9386    8.4756   -0.8700 C   0  0  0  0  0  0  0  0  0  0  0  0
  -13.4754    9.0457   -0.4798 C   0  0  0  0  0  0  0  0  0  0  0  0
  -12.3155    8.4039   -0.1120 C   0  0  0  0  0  0  0  0  0  0  0  0
  -12.1161   10.7014   -1.5863 C   0  0  0  0  0  0  0  0  0  0  0  0
  -19.2353    8.6815    0.0910 C   0  0  1  0  0  0  0  0  0  0  0  0
  -24.3924    9.9822   -0.2606 C   0  0  0  0  0  0  0  0  0  0  0  0
  -25.5819    9.9770   -0.9857 C   0  0  0  0  0  0  0  0  0  0  0  0
   -9.7351   10.5210   -1.5574 F   0  0  0  0  0  0  0  0  0  0  0  0
  -16.9214    7.9281   -0.1388 N   0  0  0  0  0  0  0  0  0  0  0  0
  -15.1465    8.0001    1.0815 N   0  0  0  0  0  0  0  0  0  0  0  0
  -16.4163    7.6478    1.0422 N   0  0  0  0  0  0  0  0  0  0  0  0
  -21.0142    7.1985   -0.2483 O   0  0  0  0  0  0  0  0  0  0  0  0
  -21.7913    4.6036   -1.5355 O   0  0  0  0  0  0  0  0  0  0  0  0
  -18.8047    6.1950    1.1537 O   0  0  0  0  0  0  0  0  0  0  0  0
  -18.8007    9.9801    0.0045 O   0  0  0  0  0  0  0  0  0  0  0  0
  -21.6883    9.7614   -0.0378 S   0  0  0  0  0  0  0  0  0  0  0  0
 12  1  1  0
  1 27  1  6
 15  2  2  0
  2 16  1  0
  2 24  1  0
  4  3  2  0
  3 17  1  0
 18  4  1  0
  4 22  1  0
 16  5  1  0
  5 18  2  0
  6  7  1  6
  8  7  2  0
  7 21  1  0
  9  8  1  0
 10  9  2  0
 10 20  1  0
 30 10  1  0
 19 11  1  0
 11 26  1  0
 11 30  1  1
 13 12  1  0
 12 26  1  1
 14 13  1  0
 13 28  1  1
 14 19  1  0
 14 23  1  1
 15 23  1  0
 16 17  2  0
 19 29  1  6
 20 21  2  0
 23 25  1  0
 24 25  2  0
M  END
$$$$
