
     RDKit          3D

 30 33  0  0  0  0  0  0  0  0999 V2000
  -20.5854    5.2402    0.4508 C   0  0  0  0  0  0  0  0  0  0  0  0
  -15.0836    9.1277   -0.4212 C   0  0  0  0  0  0  0  0  0  0  0  0
  -11.6744    7.6104   -0.9640 C   0  0  0  0  0  0  0  0  0  0  0  0
  -10.8468    8.6791   -0.7057 C   0  0  0  0  0  0  0  0  0  0  0  0
  -12.7926   10.0263   -0.2653 C   0  0  0  0  0  0  0  0  0  0  0  0
  -27.3319    7.4328   -3.4894 C   0  0  0  0  0  0  0  0  0  0  0  0
  -26.0640    7.9852   -2.9466 C   0  0  0  0  0  0  0  0  0  0  0  0
  -26.0752    8.5325   -1.6670 C   0  0  0  0  0  0  0  0  0  0  0  0
  -24.9410    9.0634   -1.0959 C   0  0  0  0  0  0  0  0  0  0  0  0
  -23.7551    9.0446   -1.8338 C   0  0  0  0  0  0  0  0  0  0  0  0
  -20.9333    8.4866   -1.1126 C   0  0  1  0  0  0  0  0  0  0  0  0
  -20.2179    6.5028   -0.2887 C   0  0  2  0  0  0  0  0  0  0  0  0
  -18.8560    7.0239    0.1181 C   0  0  1  0  0  0  0  0  0  0  0  0
  -18.5404    8.1812   -0.7949 C   0  0  1  0  0  0  0  0  0  0  0  0
  -16.0692    8.2415   -0.8109 C   0  0  0  0  0  0  0  0  0  0  0  0
  -13.6332    8.9672   -0.5205 C   0  0  0  0  0  0  0  0  0  0  0  0
  -13.0617    7.7652   -0.8688 C   0  0  0  0  0  0  0  0  0  0  0  0
  -11.4108    9.8873   -0.3561 C   0  0  0  0  0  0  0  0  0  0  0  0
  -19.6753    9.1953   -0.6120 C   0  0  1  0  0  0  0  0  0  0  0  0
  -23.7019    8.5107   -3.1072 C   0  0  0  0  0  0  0  0  0  0  0  0
  -24.8797    7.9870   -3.6358 C   0  0  0  0  0  0  0  0  0  0  0  0
   -9.5042    8.5197   -0.8005 F   0  0  0  0  0  0  0  0  0  0  0  0
  -17.2672    8.7822   -0.5414 N   0  0  0  0  0  0  0  0  0  0  0  0
  -15.7514   10.1844    0.0758 N   0  0  0  0  0  0  0  0  0  0  0  0
  -17.0484    9.9618   -0.0035 N   0  0  0  0  0  0  0  0  0  0  0  0
  -21.1974    7.4606   -0.2212 O   0  0  0  0  0  0  0  0  0  0  0  0
  -21.5461    4.4961   -0.1982 O   0  0  0  0  0  0  0  0  0  0  0  0
  -18.9313    7.5258    1.4267 O   0  0  0  0  0  0  0  0  0  0  0  0
  -19.4342   10.3739   -1.2720 O   0  0  0  0  0  0  0  0  0  0  0  0
  -22.2524    9.7189   -1.1451 S   0  0  0  0  0  0  0  0  0  0  0  0
 12  1  1  0
  1 27  1  6
 15  2  2  0
  2 16  1  0
  2 24  1  0
  4  3  2  0
  3 17  1  0
 18  4  1  0
  4 22  1  0
 16  5  1  0
  5 18  2  0
  6  7  1  6
  8  7  2  0
  7 21  1  0
  9  8  1  0
 10  9  2  0
 10 20  1  0
 30 10  1  0
 19 11  1  0
 11 26  1  0
 11 30  1  1
 13 12  1  0
 12 26  1  1
 14 13  1  0
 13 28  1  1
 14 19  1  0
 14 23  1  1
 15 23  1  0
 16 17  2  0
 19 29  1  6
 20 21  2  0
 23 25  1  0
 24 25  2  0
M  END
$$$$
