
     RDKit          3D

 22 24  0  0  0  0  0  0  0  0999 V2000
  -22.0286   -3.7706   31.5923 S   0  0  1  0  0  6  0  0  0  0  0  0
  -27.8745   -5.7700   33.2291 Br  0  0  0  0  0  0  0  0  0  0  0  0
  -26.1549   -5.1347   32.7755 C   0  0  0  0  0  0  0  0  0  0  0  0
  -20.8172   -4.7899   32.2762 N   0  0  0  0  0  0  0  0  0  0  0  0
  -21.7410   -2.3191   31.8803 O   0  0  0  0  0  0  0  0  0  0  0  0
  -25.4158   -4.2891   33.5856 C   0  0  0  0  0  0  0  0  0  0  0  0
  -19.9578   -5.6329   28.9923 N   0  0  0  0  0  0  0  0  0  0  0  0
  -21.9004   -3.9064   30.1001 O   0  0  0  0  0  0  0  0  0  0  0  0
  -24.1545   -3.8190   33.2613 C   0  0  0  0  0  0  0  0  0  0  0  0
  -23.6235   -4.2321   32.0562 C   0  0  0  0  0  0  0  0  0  0  0  0
  -24.3242   -5.0785   31.2068 C   0  0  0  0  0  0  0  0  0  0  0  0
  -25.5693   -5.5125   31.5782 C   0  0  0  0  0  0  0  0  0  0  0  0
  -23.4515   -2.9667   34.0776 C   0  0  0  0  0  0  0  0  0  0  0  0
  -24.0399   -2.5760   35.2662 C   0  0  0  0  0  0  0  0  0  0  0  0
  -25.2962   -3.0313   35.6158 C   0  0  0  0  0  0  0  0  0  0  0  0
  -25.9913   -3.8851   34.7860 C   0  0  0  0  0  0  0  0  0  0  0  0
  -19.6818   -4.9149   31.3375 C   0  0  0  0  0  0  0  0  0  0  0  0
  -19.9864   -5.9324   30.3031 C   0  0  0  0  0  0  0  0  0  0  0  0
  -20.2246   -6.5141   28.0195 C   0  0  0  0  0  0  0  0  0  0  0  0
  -20.5508   -7.8122   28.3525 C   0  0  0  0  0  0  0  0  0  0  0  0
  -20.6000   -8.1925   29.6766 C   0  0  0  0  0  0  0  0  0  0  0  0
  -20.3159   -7.2430   30.6381 C   0  0  0  0  0  0  0  0  0  0  0  0
  1  4  1  1
  1  5  2  0
  1  8  2  0
  1 10  1  0
  3  2  1  0
  6  3  2  0
 12  3  1  0
 17  4  1  1
  9  6  1  0
  6 16  1  0
 18  7  2  0
  7 19  1  0
 10  9  2  0
  9 13  1  0
 10 11  1  0
 11 12  2  0
 13 14  2  0
 14 15  1  0
 16 15  2  0
 17 18  1  0
 18 22  1  0
 19 20  2  0
 20 21  1  0
 21 22  2  0
M  END
$$$$
