
     RDKit          3D

 22 24  0  0  0  0  0  0  0  0999 V2000
  -22.2313   -6.1609   33.0845 S   0  0  1  0  0  6  0  0  0  0  0  0
  -26.9215   -2.2760   35.0239 Br  0  0  0  0  0  0  0  0  0  0  0  0
  -25.5017   -3.3816   34.4511 C   0  0  0  0  0  0  0  0  0  0  0  0
  -21.1443   -5.4818   31.9307 N   0  0  0  0  0  0  0  0  0  0  0  0
  -22.8061   -7.4626   32.5865 O   0  0  0  0  0  0  0  0  0  0  0  0
  -24.1708   -3.1206   34.7307 C   0  0  0  0  0  0  0  0  0  0  0  0
  -22.0690   -6.4398   29.4298 N   0  0  0  0  0  0  0  0  0  0  0  0
  -21.3985   -6.5329   34.2802 O   0  0  0  0  0  0  0  0  0  0  0  0
  -23.1238   -3.9257   34.3153 C   0  0  0  0  0  0  0  0  0  0  0  0
  -23.4507   -5.0486   33.5824 C   0  0  0  0  0  0  0  0  0  0  0  0
  -24.7698   -5.3547   33.2736 C   0  0  0  0  0  0  0  0  0  0  0  0
  -25.7660   -4.5220   33.7102 C   0  0  0  0  0  0  0  0  0  0  0  0
  -21.8111   -3.6321   34.5934 C   0  0  0  0  0  0  0  0  0  0  0  0
  -21.5434   -2.4865   35.3197 C   0  0  0  0  0  0  0  0  0  0  0  0
  -22.5687   -1.6663   35.7487 C   0  0  0  0  0  0  0  0  0  0  0  0
  -23.8818   -1.9722   35.4608 C   0  0  0  0  0  0  0  0  0  0  0  0
  -21.8794   -4.5694   31.0290 C   0  0  0  0  0  0  0  0  0  0  0  0
  -22.6102   -5.3493   30.0015 C   0  0  0  0  0  0  0  0  0  0  0  0
  -22.6864   -7.1781   28.4982 C   0  0  0  0  0  0  0  0  0  0  0  0
  -23.9523   -6.8225   28.0816 C   0  0  0  0  0  0  0  0  0  0  0  0
  -24.5707   -5.7160   28.6234 C   0  0  0  0  0  0  0  0  0  0  0  0
  -23.8880   -4.9913   29.5803 C   0  0  0  0  0  0  0  0  0  0  0  0
  1  4  1  6
  1  5  2  0
  1  8  2  0
  1 10  1  0
  3  2  1  0
  6  3  2  0
 12  3  1  0
 17  4  1  1
  9  6  1  0
  6 16  1  0
 18  7  2  0
  7 19  1  0
 10  9  2  0
  9 13  1  0
 10 11  1  0
 11 12  2  0
 13 14  2  0
 14 15  1  0
 16 15  2  0
 17 18  1  0
 18 22  1  0
 19 20  2  0
 20 21  1  0
 21 22  2  0
M  END
$$$$
