
     RDKit          3D

 22 24  0  0  0  0  0  0  0  0999 V2000
  -21.3665   -5.1339   31.8177 S   0  0  1  0  0  6  0  0  0  0  0  0
  -27.4924   -4.5582   30.0016 Br  0  0  0  0  0  0  0  0  0  0  0  0
  -25.6717   -4.7364   30.5397 C   0  0  0  0  0  0  0  0  0  0  0  0
  -21.0378   -4.6490   33.3969 N   0  0  0  0  0  0  0  0  0  0  0  0
  -20.5180   -4.4375   30.7880 O   0  0  0  0  0  0  0  0  0  0  0  0
  -25.3395   -5.5832   31.5935 C   0  0  0  0  0  0  0  0  0  0  0  0
  -23.1632   -1.7636   33.9046 N   0  0  0  0  0  0  0  0  0  0  0  0
  -21.0165   -6.6154   31.7112 O   0  0  0  0  0  0  0  0  0  0  0  0
  -24.0250   -5.7290   32.0024 C   0  0  0  0  0  0  0  0  0  0  0  0
  -23.0445   -5.0188   31.3466 C   0  0  0  0  0  0  0  0  0  0  0  0
  -23.4033   -4.1877   30.3058 C   0  0  0  0  0  0  0  0  0  0  0  0
  -24.6998   -4.0201   29.8745 C   0  0  0  0  0  0  0  0  0  0  0  0
  -23.7317   -6.5870   33.0547 C   0  0  0  0  0  0  0  0  0  0  0  0
  -24.6987   -7.3108   33.7227 C   0  0  0  0  0  0  0  0  0  0  0  0
  -26.0005   -7.1482   33.2976 C   0  0  0  0  0  0  0  0  0  0  0  0
  -26.3218   -6.3026   32.2539 C   0  0  0  0  0  0  0  0  0  0  0  0
  -21.1910   -3.2759   33.7054 C   0  0  0  0  0  0  0  0  0  0  0  0
  -22.5463   -2.9222   34.1891 C   0  0  0  0  0  0  0  0  0  0  0  0
  -24.4033   -1.4760   34.3655 C   0  0  0  0  0  0  0  0  0  0  0  0
  -25.1018   -2.3623   35.1555 C   0  0  0  0  0  0  0  0  0  0  0  0
  -24.4982   -3.5685   35.4706 C   0  0  0  0  0  0  0  0  0  0  0  0
  -23.2292   -3.8306   34.9827 C   0  0  0  0  0  0  0  0  0  0  0  0
  1  4  1  1
  1  5  2  0
  1  8  2  0
  1 10  1  0
  3  2  1  0
  6  3  2  0
 12  3  1  0
 17  4  1  0
  9  6  1  0
  6 16  1  0
 18  7  2  0
  7 19  1  0
 10  9  2  0
  9 13  1  0
 10 11  1  0
 11 12  2  0
 13 14  2  0
 14 15  1  0
 16 15  2  0
 17 18  1  0
 18 22  1  0
 19 20  2  0
 20 21  1  0
 21 22  2  0
M  END
$$$$
