
     RDKit          3D

 22 24  0  0  0  0  0  0  0  0999 V2000
  -21.5592   -5.6098   33.2256 S   0  0  1  0  0  6  0  0  0  0  0  0
  -25.7225   -0.8633   34.2200 Br  0  0  0  0  0  0  0  0  0  0  0  0
  -24.5302   -2.3012   33.9423 C   0  0  0  0  0  0  0  0  0  0  0  0
  -20.4879   -5.1933   31.9399 N   0  0  0  0  0  0  0  0  0  0  0  0
  -22.1900   -6.9586   32.9896 O   0  0  0  0  0  0  0  0  0  0  0  0
  -24.9436   -3.5876   33.6390 C   0  0  0  0  0  0  0  0  0  0  0  0
  -23.3090   -5.6912   29.8908 N   0  0  0  0  0  0  0  0  0  0  0  0
  -20.7015   -5.7875   34.4480 O   0  0  0  0  0  0  0  0  0  0  0  0
  -24.0767   -4.6473   33.4333 C   0  0  0  0  0  0  0  0  0  0  0  0
  -22.7267   -4.3812   33.5410 C   0  0  0  0  0  0  0  0  0  0  0  0
  -22.2600   -3.1089   33.8446 C   0  0  0  0  0  0  0  0  0  0  0  0
  -23.1632   -2.0974   34.0386 C   0  0  0  0  0  0  0  0  0  0  0  0
  -24.5168   -5.9174   33.1504 C   0  0  0  0  0  0  0  0  0  0  0  0
  -25.8810   -6.1269   33.0685 C   0  0  0  0  0  0  0  0  0  0  0  0
  -26.7686   -5.0873   33.2670 C   0  0  0  0  0  0  0  0  0  0  0  0
  -26.3129   -3.8178   33.5521 C   0  0  0  0  0  0  0  0  0  0  0  0
  -20.9709   -5.7877   30.6753 C   0  0  0  0  0  0  0  0  0  0  0  0
  -22.1639   -5.0529   30.1908 C   0  0  0  0  0  0  0  0  0  0  0  0
  -24.4136   -5.0750   29.4501 C   0  0  0  0  0  0  0  0  0  0  0  0
  -24.4047   -3.7057   29.2846 C   0  0  0  0  0  0  0  0  0  0  0  0
  -23.2659   -2.9840   29.5722 C   0  0  0  0  0  0  0  0  0  0  0  0
  -22.1561   -3.6707   30.0234 C   0  0  0  0  0  0  0  0  0  0  0  0
  1  4  1  6
  1  5  2  0
  1  8  2  0
  1 10  1  0
  3  2  1  0
  6  3  2  0
 12  3  1  0
 17  4  1  1
  9  6  1  0
  6 16  1  0
 18  7  2  0
  7 19  1  0
 10  9  2  0
  9 13  1  0
 10 11  1  0
 11 12  2  0
 13 14  2  0
 14 15  1  0
 16 15  2  0
 17 18  1  0
 18 22  1  0
 19 20  2  0
 20 21  1  0
 21 22  2  0
M  END
$$$$
