
     RDKit          3D

 22 24  0  0  0  0  0  0  0  0999 V2000
  -21.5571   -5.4889   33.1051 S   0  0  1  0  0  6  0  0  0  0  0  0
  -26.2101   -1.1739   33.8678 Br  0  0  0  0  0  0  0  0  0  0  0  0
  -24.8652   -2.4847   33.6701 C   0  0  0  0  0  0  0  0  0  0  0  0
  -21.5975   -6.1816   31.5262 N   0  0  0  0  0  0  0  0  0  0  0  0
  -21.4931   -6.5593   34.1648 O   0  0  0  0  0  0  0  0  0  0  0  0
  -25.1211   -3.8456   33.6645 C   0  0  0  0  0  0  0  0  0  0  0  0
  -23.5702   -3.9377   29.4558 N   0  0  0  0  0  0  0  0  0  0  0  0
  -20.2485   -4.7554   33.2102 O   0  0  0  0  0  0  0  0  0  0  0  0
  -24.1416   -4.8134   33.5196 C   0  0  0  0  0  0  0  0  0  0  0  0
  -22.8423   -4.3715   33.3726 C   0  0  0  0  0  0  0  0  0  0  0  0
  -22.5321   -3.0177   33.3729 C   0  0  0  0  0  0  0  0  0  0  0  0
  -23.5417   -2.1036   33.5205 C   0  0  0  0  0  0  0  0  0  0  0  0
  -24.4234   -6.1577   33.5350 C   0  0  0  0  0  0  0  0  0  0  0  0
  -25.7416   -6.5412   33.6993 C   0  0  0  0  0  0  0  0  0  0  0  0
  -26.7393   -5.5970   33.8439 C   0  0  0  0  0  0  0  0  0  0  0  0
  -26.4418   -4.2509   33.8284 C   0  0  0  0  0  0  0  0  0  0  0  0
  -21.6714   -5.1084   30.5120 C   0  0  0  0  0  0  0  0  0  0  0  0
  -23.0193   -5.0833   29.8952 C   0  0  0  0  0  0  0  0  0  0  0  0
  -24.7828   -3.8610   28.8920 C   0  0  0  0  0  0  0  0  0  0  0  0
  -25.5329   -5.0086   28.7403 C   0  0  0  0  0  0  0  0  0  0  0  0
  -25.0330   -6.2202   29.1673 C   0  0  0  0  0  0  0  0  0  0  0  0
  -23.7773   -6.2409   29.7415 C   0  0  0  0  0  0  0  0  0  0  0  0
  1  4  1  6
  1  5  2  0
  1  8  2  0
  1 10  1  0
  3  2  1  0
  6  3  2  0
 12  3  1  0
 17  4  1  1
  9  6  1  0
  6 16  1  0
 18  7  2  0
  7 19  1  0
 10  9  2  0
  9 13  1  0
 10 11  1  0
 11 12  2  0
 13 14  2  0
 14 15  1  0
 16 15  2  0
 17 18  1  0
 18 22  1  0
 19 20  2  0
 20 21  1  0
 21 22  2  0
M  END
$$$$
