
     RDKit          3D

 22 24  0  0  0  0  0  0  0  0999 V2000
  -22.4777   -3.7520   31.0299 S   0  0  1  0  0  6  0  0  0  0  0  0
  -27.1277   -4.2550   35.3860 Br  0  0  0  0  0  0  0  0  0  0  0  0
  -25.7385   -4.0596   34.1219 C   0  0  0  0  0  0  0  0  0  0  0  0
  -21.4004   -5.0946   31.1341 N   0  0  0  0  0  0  0  0  0  0  0  0
  -21.7212   -2.4480   31.0455 O   0  0  0  0  0  0  0  0  0  0  0  0
  -24.5694   -3.3619   34.3747 C   0  0  0  0  0  0  0  0  0  0  0  0
  -24.2700   -6.5521   30.0042 N   0  0  0  0  0  0  0  0  0  0  0  0
  -23.1082   -3.8223   29.6665 O   0  0  0  0  0  0  0  0  0  0  0  0
  -23.5456   -3.2141   33.4543 C   0  0  0  0  0  0  0  0  0  0  0  0
  -23.7233   -3.8066   32.2205 C   0  0  0  0  0  0  0  0  0  0  0  0
  -24.8777   -4.5162   31.9159 C   0  0  0  0  0  0  0  0  0  0  0  0
  -25.8588   -4.6300   32.8651 C   0  0  0  0  0  0  0  0  0  0  0  0
  -22.4038   -2.5013   33.7277 C   0  0  0  0  0  0  0  0  0  0  0  0
  -22.2875   -1.9183   34.9760 C   0  0  0  0  0  0  0  0  0  0  0  0
  -23.2925   -2.0514   35.9143 C   0  0  0  0  0  0  0  0  0  0  0  0
  -24.4341   -2.7683   35.6257 C   0  0  0  0  0  0  0  0  0  0  0  0
  -22.1742   -6.3445   31.2912 C   0  0  0  0  0  0  0  0  0  0  0  0
  -22.9284   -6.6356   30.0484 C   0  0  0  0  0  0  0  0  0  0  0  0
  -24.9977   -6.8044   28.9084 C   0  0  0  0  0  0  0  0  0  0  0  0
  -24.3601   -7.1735   27.7423 C   0  0  0  0  0  0  0  0  0  0  0  0
  -22.9861   -7.2800   27.7121 C   0  0  0  0  0  0  0  0  0  0  0  0
  -22.2859   -7.0083   28.8709 C   0  0  0  0  0  0  0  0  0  0  0  0
  1  4  1  1
  1  5  2  0
  1  8  2  0
  1 10  1  0
  3  2  1  0
  6  3  2  0
 12  3  1  0
 17  4  1  1
  9  6  1  0
  6 16  1  0
 18  7  2  0
  7 19  1  0
 10  9  2  0
  9 13  1  0
 10 11  1  0
 11 12  2  0
 13 14  2  0
 14 15  1  0
 16 15  2  0
 17 18  1  0
 18 22  1  0
 19 20  2  0
 20 21  1  0
 21 22  2  0
M  END
$$$$
