
     RDKit          3D

 22 24  0  0  0  0  0  0  0  0999 V2000
  -21.5140   -5.2619   30.8620 S   0  0  1  0  0  6  0  0  0  0  0  0
  -27.7875   -5.8751   31.9196 Br  0  0  0  0  0  0  0  0  0  0  0  0
  -25.9271   -5.6813   31.6595 C   0  0  0  0  0  0  0  0  0  0  0  0
  -20.7664   -3.9181   31.6424 N   0  0  0  0  0  0  0  0  0  0  0  0
  -21.2363   -5.2511   29.3802 O   0  0  0  0  0  0  0  0  0  0  0  0
  -24.9921   -5.8766   32.6620 C   0  0  0  0  0  0  0  0  0  0  0  0
  -23.6612   -1.8093   31.8414 N   0  0  0  0  0  0  0  0  0  0  0  0
  -20.8198   -6.4907   31.3813 O   0  0  0  0  0  0  0  0  0  0  0  0
  -23.6266   -5.7373   32.4801 C   0  0  0  0  0  0  0  0  0  0  0  0
  -23.1966   -5.3838   31.2172 C   0  0  0  0  0  0  0  0  0  0  0  0
  -24.0934   -5.1748   30.1775 C   0  0  0  0  0  0  0  0  0  0  0  0
  -25.4341   -5.3261   30.4144 C   0  0  0  0  0  0  0  0  0  0  0  0
  -22.7233   -5.9209   33.4985 C   0  0  0  0  0  0  0  0  0  0  0  0
  -23.2137   -6.2607   34.7458 C   0  0  0  0  0  0  0  0  0  0  0  0
  -24.5710   -6.4085   34.9550 C   0  0  0  0  0  0  0  0  0  0  0  0
  -25.4666   -6.2193   33.9241 C   0  0  0  0  0  0  0  0  0  0  0  0
  -21.4301   -2.6651   31.2239 C   0  0  0  0  0  0  0  0  0  0  0  0
  -22.4581   -2.2769   32.2191 C   0  0  0  0  0  0  0  0  0  0  0  0
  -24.6233   -1.4454   32.6993 C   0  0  0  0  0  0  0  0  0  0  0  0
  -24.3943   -1.5454   34.0558 C   0  0  0  0  0  0  0  0  0  0  0  0
  -23.1839   -2.0166   34.5175 C   0  0  0  0  0  0  0  0  0  0  0  0
  -22.2281   -2.3775   33.5886 C   0  0  0  0  0  0  0  0  0  0  0  0
  1  4  1  1
  1  5  2  0
  1  8  2  0
  1 10  1  0
  3  2  1  0
  6  3  2  0
 12  3  1  0
 17  4  1  1
  9  6  1  0
  6 16  1  0
 18  7  2  0
  7 19  1  0
 10  9  2  0
  9 13  1  0
 10 11  1  0
 11 12  2  0
 13 14  2  0
 14 15  1  0
 16 15  2  0
 17 18  1  0
 18 22  1  0
 19 20  2  0
 20 21  1  0
 21 22  2  0
M  END
$$$$
