
     RDKit          3D

 22 24  0  0  0  0  0  0  0  0999 V2000
  -21.5639   -5.2224   33.7319 S   0  0  1  0  0  6  0  0  0  0  0  0
  -26.3097   -0.9689   34.4677 Br  0  0  0  0  0  0  0  0  0  0  0  0
  -24.9013   -2.2345   34.2422 C   0  0  0  0  0  0  0  0  0  0  0  0
  -20.7692   -5.1539   32.2483 N   0  0  0  0  0  0  0  0  0  0  0  0
  -22.0420   -6.6032   34.0924 O   0  0  0  0  0  0  0  0  0  0  0  0
  -25.2026   -3.5712   33.9963 C   0  0  0  0  0  0  0  0  0  0  0  0
  -23.3755   -5.8702   29.8117 N   0  0  0  0  0  0  0  0  0  0  0  0
  -20.5550   -4.8374   34.8101 O   0  0  0  0  0  0  0  0  0  0  0  0
  -24.1976   -4.5085   33.8293 C   0  0  0  0  0  0  0  0  0  0  0  0
  -22.8866   -4.0958   33.9109 C   0  0  0  0  0  0  0  0  0  0  0  0
  -22.6182   -2.7649   34.1552 C   0  0  0  0  0  0  0  0  0  0  0  0
  -23.5931   -1.8082   34.3258 C   0  0  0  0  0  0  0  0  0  0  0  0
  -24.5372   -5.8322   33.5806 C   0  0  0  0  0  0  0  0  0  0  0  0
  -25.8446   -6.2659   33.4912 C   0  0  0  0  0  0  0  0  0  0  0  0
  -26.8277   -5.3140   33.6617 C   0  0  0  0  0  0  0  0  0  0  0  0
  -26.5199   -3.9906   33.9097 C   0  0  0  0  0  0  0  0  0  0  0  0
  -21.2966   -5.9279   31.1868 C   0  0  0  0  0  0  0  0  0  0  0  0
  -22.3568   -5.2369   30.4158 C   0  0  0  0  0  0  0  0  0  0  0  0
  -24.3262   -5.2036   29.1153 C   0  0  0  0  0  0  0  0  0  0  0  0
  -24.2982   -3.8321   28.9893 C   0  0  0  0  0  0  0  0  0  0  0  0
  -23.2624   -3.1435   29.5988 C   0  0  0  0  0  0  0  0  0  0  0  0
  -22.3069   -3.8563   30.3032 C   0  0  0  0  0  0  0  0  0  0  0  0
  1  4  1  6
  1  5  2  0
  1  8  2  0
  1 10  1  0
  3  2  1  0
  6  3  2  0
 12  3  1  0
 17  4  1  0
  9  6  1  0
  6 16  1  0
 18  7  2  0
  7 19  1  0
 10  9  2  0
  9 13  1  0
 10 11  1  0
 11 12  2  0
 13 14  2  0
 14 15  1  0
 16 15  2  0
 17 18  1  0
 18 22  1  0
 19 20  2  0
 20 21  1  0
 21 22  2  0
M  END
$$$$
