
     RDKit          3D

 22 24  0  0  0  0  0  0  0  0999 V2000
  -22.0788   -3.6281   33.4212 S   0  0  1  0  0  6  0  0  0  0  0  0
  -27.5087   -6.9662   32.6935 Br  0  0  0  0  0  0  0  0  0  0  0  0
  -25.8985   -5.9678   32.9091 C   0  0  0  0  0  0  0  0  0  0  0  0
  -20.7055   -4.3806   32.8009 N   0  0  0  0  0  0  0  0  0  0  0  0
  -21.9526   -3.2537   34.8735 O   0  0  0  0  0  0  0  0  0  0  0  0
  -25.4456   -5.1505   31.8772 C   0  0  0  0  0  0  0  0  0  0  0  0
  -20.9421   -6.7167   31.2121 N   0  0  0  0  0  0  0  0  0  0  0  0
  -22.2606   -2.3136   32.6677 O   0  0  0  0  0  0  0  0  0  0  0  0
  -24.2796   -4.4162   32.0100 C   0  0  0  0  0  0  0  0  0  0  0  0
  -23.5695   -4.5075   33.1862 C   0  0  0  0  0  0  0  0  0  0  0  0
  -24.0426   -5.3250   34.1915 C   0  0  0  0  0  0  0  0  0  0  0  0
  -25.1974   -6.0677   34.0918 C   0  0  0  0  0  0  0  0  0  0  0  0
  -23.8619   -3.6079   30.9604 C   0  0  0  0  0  0  0  0  0  0  0  0
  -24.5607   -3.4994   29.7749 C   0  0  0  0  0  0  0  0  0  0  0  0
  -25.7184   -4.2408   29.6663 C   0  0  0  0  0  0  0  0  0  0  0  0
  -26.1582   -5.0525   30.6935 C   0  0  0  0  0  0  0  0  0  0  0  0
  -20.4740   -4.2757   31.4083 C   0  0  0  0  0  0  0  0  0  0  0  0
  -20.8241   -5.5015   30.6526 C   0  0  0  0  0  0  0  0  0  0  0  0
  -21.2639   -7.8146   30.4881 C   0  0  0  0  0  0  0  0  0  0  0  0
  -21.4885   -7.7421   29.1309 C   0  0  0  0  0  0  0  0  0  0  0  0
  -21.3760   -6.5052   28.5178 C   0  0  0  0  0  0  0  0  0  0  0  0
  -21.0454   -5.4031   29.2879 C   0  0  0  0  0  0  0  0  0  0  0  0
  1  4  1  6
  1  5  2  0
  1  8  2  0
  1 10  1  0
  3  2  1  0
  6  3  2  0
 12  3  1  0
 17  4  1  0
  9  6  1  0
  6 16  1  0
 18  7  2  0
  7 19  1  0
 10  9  2  0
  9 13  1  0
 10 11  1  0
 11 12  2  0
 13 14  2  0
 14 15  1  0
 16 15  2  0
 17 18  1  0
 18 22  1  0
 19 20  2  0
 20 21  1  0
 21 22  2  0
M  END
$$$$
