
     RDKit          3D

 22 24  0  0  0  0  0  0  0  0999 V2000
  -22.0557   -6.1937   33.4545 S   0  0  1  0  0  6  0  0  0  0  0  0
  -26.7431   -1.8142   33.5263 Br  0  0  0  0  0  0  0  0  0  0  0  0
  -25.3500   -3.1160   33.4977 C   0  0  0  0  0  0  0  0  0  0  0  0
  -21.9693   -7.1772   32.0898 N   0  0  0  0  0  0  0  0  0  0  0  0
  -22.1017   -6.9643   34.7466 O   0  0  0  0  0  0  0  0  0  0  0  0
  -25.5861   -4.3727   32.9473 C   0  0  0  0  0  0  0  0  0  0  0  0
  -21.7458   -4.2431   30.1621 N   0  0  0  0  0  0  0  0  0  0  0  0
  -20.7722   -5.3700   33.5075 O   0  0  0  0  0  0  0  0  0  0  0  0
  -24.5908   -5.3343   32.9152 C   0  0  0  0  0  0  0  0  0  0  0  0
  -23.3554   -5.0269   33.4398 C   0  0  0  0  0  0  0  0  0  0  0  0
  -23.1504   -3.7735   33.9782 C   0  0  0  0  0  0  0  0  0  0  0  0
  -24.1177   -2.7953   34.0257 C   0  0  0  0  0  0  0  0  0  0  0  0
  -24.8624   -6.5753   32.3534 C   0  0  0  0  0  0  0  0  0  0  0  0
  -26.0923   -6.9024   31.8190 C   0  0  0  0  0  0  0  0  0  0  0  0
  -27.0676   -5.9284   31.8632 C   0  0  0  0  0  0  0  0  0  0  0  0
  -26.8261   -4.6856   32.4151 C   0  0  0  0  0  0  0  0  0  0  0  0
  -22.2639   -6.5865   30.8375 C   0  0  0  0  0  0  0  0  0  0  0  0
  -21.3419   -5.4873   30.4662 C   0  0  0  0  0  0  0  0  0  0  0  0
  -20.8725   -3.2642   29.8272 C   0  0  0  0  0  0  0  0  0  0  0  0
  -19.5152   -3.4947   29.7807 C   0  0  0  0  0  0  0  0  0  0  0  0
  -19.0600   -4.7662   30.0881 C   0  0  0  0  0  0  0  0  0  0  0  0
  -19.9804   -5.7439   30.4264 C   0  0  0  0  0  0  0  0  0  0  0  0
  1  4  1  6
  1  5  2  0
  1  8  2  0
  1 10  1  0
  3  2  1  0
  6  3  2  0
 12  3  1  0
 17  4  1  0
  9  6  1  0
  6 16  1  0
 18  7  2  0
  7 19  1  0
 10  9  2  0
  9 13  1  0
 10 11  1  0
 11 12  2  0
 13 14  2  0
 14 15  1  0
 16 15  2  0
 17 18  1  0
 18 22  1  0
 19 20  2  0
 20 21  1  0
 21 22  2  0
M  END
$$$$
