
     RDKit          3D

 22 24  0  0  0  0  0  0  0  0999 V2000
  -20.9134   -5.2128   32.2580 S   0  0  1  0  0  6  0  0  0  0  0  0
  -26.2310   -2.0460   30.5695 Br  0  0  0  0  0  0  0  0  0  0  0  0
  -24.6536   -2.9936   31.0696 C   0  0  0  0  0  0  0  0  0  0  0  0
  -20.7884   -6.7905   31.6816 N   0  0  0  0  0  0  0  0  0  0  0  0
  -20.7080   -5.1000   33.7448 O   0  0  0  0  0  0  0  0  0  0  0  0
  -24.7012   -3.9219   32.1058 C   0  0  0  0  0  0  0  0  0  0  0  0
  -22.4928   -6.9171   28.4538 N   0  0  0  0  0  0  0  0  0  0  0  0
  -19.7889   -4.4018   31.6206 O   0  0  0  0  0  0  0  0  0  0  0  0
  -23.5694   -4.6220   32.4871 C   0  0  0  0  0  0  0  0  0  0  0  0
  -22.3878   -4.3843   31.8214 C   0  0  0  0  0  0  0  0  0  0  0  0
  -22.3707   -3.4590   30.7985 C   0  0  0  0  0  0  0  0  0  0  0  0
  -23.4772   -2.7466   30.3948 C   0  0  0  0  0  0  0  0  0  0  0  0
  -23.6570   -5.5440   33.5223 C   0  0  0  0  0  0  0  0  0  0  0  0
  -24.8321   -5.7999   34.1999 C   0  0  0  0  0  0  0  0  0  0  0  0
  -25.9455   -5.0897   33.8024 C   0  0  0  0  0  0  0  0  0  0  0  0
  -25.8883   -4.1673   32.7761 C   0  0  0  0  0  0  0  0  0  0  0  0
  -20.7947   -6.9772   30.2783 C   0  0  0  0  0  0  0  0  0  0  0  0
  -22.1446   -7.2169   29.7158 C   0  0  0  0  0  0  0  0  0  0  0  0
  -23.7376   -7.1512   27.9754 C   0  0  0  0  0  0  0  0  0  0  0  0
  -24.7183   -7.7127   28.7631 C   0  0  0  0  0  0  0  0  0  0  0  0
  -24.3969   -8.0358   30.0710 C   0  0  0  0  0  0  0  0  0  0  0  0
  -23.1146   -7.7830   30.5281 C   0  0  0  0  0  0  0  0  0  0  0  0
  1  4  1  6
  1  5  2  0
  1  8  2  0
  1 10  1  0
  3  2  1  0
  6  3  2  0
 12  3  1  0
 17  4  1  0
  9  6  1  0
  6 16  1  0
 18  7  2  0
  7 19  1  0
 10  9  2  0
  9 13  1  0
 10 11  1  0
 11 12  2  0
 13 14  2  0
 14 15  1  0
 16 15  2  0
 17 18  1  0
 18 22  1  0
 19 20  2  0
 20 21  1  0
 21 22  2  0
M  END
$$$$
