
     RDKit          3D

 22 24  0  0  0  0  0  0  0  0999 V2000
  -21.2083   -4.0108   30.9138 S   0  0  1  0  0  6  0  0  0  0  0  0
  -27.3471   -5.6666   31.5661 Br  0  0  0  0  0  0  0  0  0  0  0  0
  -25.5371   -5.1482   31.4190 C   0  0  0  0  0  0  0  0  0  0  0  0
  -20.4886   -4.9151   29.6338 N   0  0  0  0  0  0  0  0  0  0  0  0
  -20.4074   -4.1391   32.1846 O   0  0  0  0  0  0  0  0  0  0  0  0
  -24.7488   -4.8123   32.5068 C   0  0  0  0  0  0  0  0  0  0  0  0
  -21.6039   -7.1056   28.1707 N   0  0  0  0  0  0  0  0  0  0  0  0
  -21.0937   -2.5631   30.5235 O   0  0  0  0  0  0  0  0  0  0  0  0
  -23.4213   -4.4317   32.4082 C   0  0  0  0  0  0  0  0  0  0  0  0
  -22.8737   -4.3936   31.1419 C   0  0  0  0  0  0  0  0  0  0  0  0
  -23.6217   -4.7197   30.0180 C   0  0  0  0  0  0  0  0  0  0  0  0
  -24.9315   -5.0890   30.1744 C   0  0  0  0  0  0  0  0  0  0  0  0
  -22.6684   -4.0873   33.5043 C   0  0  0  0  0  0  0  0  0  0  0  0
  -23.2746   -4.1310   34.7461 C   0  0  0  0  0  0  0  0  0  0  0  0
  -24.5969   -4.5092   34.8739 C   0  0  0  0  0  0  0  0  0  0  0  0
  -25.3414   -4.8506   33.7649 C   0  0  0  0  0  0  0  0  0  0  0  0
  -20.2538   -6.3061   30.0759 C   0  0  0  0  0  0  0  0  0  0  0  0
  -21.2584   -7.2102   29.4662 C   0  0  0  0  0  0  0  0  0  0  0  0
  -22.5045   -7.8962   27.5724 C   0  0  0  0  0  0  0  0  0  0  0  0
  -23.1301   -8.8843   28.3038 C   0  0  0  0  0  0  0  0  0  0  0  0
  -22.8264   -9.0511   29.6380 C   0  0  0  0  0  0  0  0  0  0  0  0
  -21.8904   -8.2079   30.2034 C   0  0  0  0  0  0  0  0  0  0  0  0
  1  4  1  6
  1  5  2  0
  1  8  2  0
  1 10  1  0
  3  2  1  0
  6  3  2  0
 12  3  1  0
 17  4  1  1
  9  6  1  0
  6 16  1  0
 18  7  2  0
  7 19  1  0
 10  9  2  0
  9 13  1  0
 10 11  1  0
 11 12  2  0
 13 14  2  0
 14 15  1  0
 16 15  2  0
 17 18  1  0
 18 22  1  0
 19 20  2  0
 20 21  1  0
 21 22  2  0
M  END
$$$$
