
     RDKit          3D

 22 24  0  0  0  0  0  0  0  0999 V2000
  -21.9535   -5.0626   30.2753 S   0  0  1  0  0  6  0  0  0  0  0  0
  -28.2402   -5.4321   31.4992 Br  0  0  0  0  0  0  0  0  0  0  0  0
  -26.3707   -5.3292   31.1374 C   0  0  0  0  0  0  0  0  0  0  0  0
  -21.2876   -3.5314   30.4971 N   0  0  0  0  0  0  0  0  0  0  0  0
  -21.7101   -5.6287   28.9021 O   0  0  0  0  0  0  0  0  0  0  0  0
  -25.4535   -5.5134   32.1683 C   0  0  0  0  0  0  0  0  0  0  0  0
  -22.5251   -1.7265   32.5036 N   0  0  0  0  0  0  0  0  0  0  0  0
  -21.2547   -6.0109   31.2454 O   0  0  0  0  0  0  0  0  0  0  0  0
  -24.0915   -5.4434   31.9305 C   0  0  0  0  0  0  0  0  0  0  0  0
  -23.6550   -5.1866   30.6502 C   0  0  0  0  0  0  0  0  0  0  0  0
  -24.5868   -5.0086   29.6487 C   0  0  0  0  0  0  0  0  0  0  0  0
  -25.9469   -5.0720   29.8512 C   0  0  0  0  0  0  0  0  0  0  0  0
  -23.2067   -5.6376   32.9835 C   0  0  0  0  0  0  0  0  0  0  0  0
  -23.6233   -5.8997   34.2731 C   0  0  0  0  0  0  0  0  0  0  0  0
  -24.9845   -5.9641   34.4851 C   0  0  0  0  0  0  0  0  0  0  0  0
  -25.8876   -5.7757   33.4573 C   0  0  0  0  0  0  0  0  0  0  0  0
  -20.6990   -3.2492   31.7532 C   0  0  0  0  0  0  0  0  0  0  0  0
  -21.6556   -2.7193   32.7533 C   0  0  0  0  0  0  0  0  0  0  0  0
  -23.3848   -1.2689   33.4442 C   0  0  0  0  0  0  0  0  0  0  0  0
  -23.4128   -1.8009   34.7145 C   0  0  0  0  0  0  0  0  0  0  0  0
  -22.5305   -2.8269   35.0100 C   0  0  0  0  0  0  0  0  0  0  0  0
  -21.6649   -3.2709   34.0248 C   0  0  0  0  0  0  0  0  0  0  0  0
  1  4  1  6
  1  5  2  0
  1  8  2  0
  1 10  1  0
  3  2  1  0
  6  3  2  0
 12  3  1  0
 17  4  1  0
  9  6  1  0
  6 16  1  0
 18  7  2  0
  7 19  1  0
 10  9  2  0
  9 13  1  0
 10 11  1  0
 11 12  2  0
 13 14  2  0
 14 15  1  0
 16 15  2  0
 17 18  1  0
 18 22  1  0
 19 20  2  0
 20 21  1  0
 21 22  2  0
M  END
$$$$
