
     RDKit          3D

 22 24  0  0  0  0  0  0  0  0999 V2000
  -21.3843   -4.6701   31.8348 S   0  0  1  0  0  6  0  0  0  0  0  0
  -27.5942   -3.6143   33.0506 Br  0  0  0  0  0  0  0  0  0  0  0  0
  -25.7482   -3.9332   32.6944 C   0  0  0  0  0  0  0  0  0  0  0  0
  -20.9879   -4.5164   30.2049 N   0  0  0  0  0  0  0  0  0  0  0  0
  -20.9629   -5.9856   32.4325 O   0  0  0  0  0  0  0  0  0  0  0  0
  -24.7998   -3.6988   33.6861 C   0  0  0  0  0  0  0  0  0  0  0  0
  -23.5252   -6.7738   28.9030 N   0  0  0  0  0  0  0  0  0  0  0  0
  -20.6088   -3.5999   32.5976 O   0  0  0  0  0  0  0  0  0  0  0  0
  -23.4540   -3.9227   33.4514 C   0  0  0  0  0  0  0  0  0  0  0  0
  -23.0651   -4.3836   32.2136 C   0  0  0  0  0  0  0  0  0  0  0  0
  -24.0271   -4.6072   31.2505 C   0  0  0  0  0  0  0  0  0  0  0  0
  -25.3723   -4.3951   31.4512 C   0  0  0  0  0  0  0  0  0  0  0  0
  -22.5376   -3.6820   34.4671 C   0  0  0  0  0  0  0  0  0  0  0  0
  -22.9067   -3.2236   35.7157 C   0  0  0  0  0  0  0  0  0  0  0  0
  -24.2525   -3.0076   35.9251 C   0  0  0  0  0  0  0  0  0  0  0  0
  -25.1864   -3.2386   34.9341 C   0  0  0  0  0  0  0  0  0  0  0  0
  -21.9845   -4.8454   29.2549 C   0  0  0  0  0  0  0  0  0  0  0  0
  -22.3103   -6.2903   29.2102 C   0  0  0  0  0  0  0  0  0  0  0  0
  -23.7847   -8.1023   28.8724 C   0  0  0  0  0  0  0  0  0  0  0  0
  -22.8102   -9.0335   29.1565 C   0  0  0  0  0  0  0  0  0  0  0  0
  -21.5440   -8.5731   29.4778 C   0  0  0  0  0  0  0  0  0  0  0  0
  -21.3128   -7.2081   29.4999 C   0  0  0  0  0  0  0  0  0  0  0  0
  1  4  1  6
  1  5  2  0
  1  8  2  0
  1 10  1  0
  3  2  1  0
  6  3  2  0
 12  3  1  0
 17  4  1  0
  9  6  1  0
  6 16  1  0
 18  7  2  0
  7 19  1  0
 10  9  2  0
  9 13  1  0
 10 11  1  0
 11 12  2  0
 13 14  2  0
 14 15  1  0
 16 15  2  0
 17 18  1  0
 18 22  1  0
 19 20  2  0
 20 21  1  0
 21 22  2  0
M  END
$$$$
