
     RDKit          3D

 22 24  0  0  0  0  0  0  0  0999 V2000
  -22.1795   -3.3827   30.7158 S   0  0  1  0  0  6  0  0  0  0  0  0
  -27.1511   -5.1649   34.3156 Br  0  0  0  0  0  0  0  0  0  0  0  0
  -25.6761   -4.5945   33.2834 C   0  0  0  0  0  0  0  0  0  0  0  0
  -20.6918   -4.0116   31.3202 N   0  0  0  0  0  0  0  0  0  0  0  0
  -22.0760   -1.9011   30.4569 O   0  0  0  0  0  0  0  0  0  0  0  0
  -24.6518   -3.8093   33.7852 C   0  0  0  0  0  0  0  0  0  0  0  0
  -20.5415   -6.1390   29.3171 N   0  0  0  0  0  0  0  0  0  0  0  0
  -22.3801   -4.0036   29.3609 O   0  0  0  0  0  0  0  0  0  0  0  0
  -23.5667   -3.3870   33.0360 C   0  0  0  0  0  0  0  0  0  0  0  0
  -23.5252   -3.7856   31.7152 C   0  0  0  0  0  0  0  0  0  0  0  0
  -24.5278   -4.5721   31.1629 C   0  0  0  0  0  0  0  0  0  0  0  0
  -25.5789   -4.9606   31.9508 C   0  0  0  0  0  0  0  0  0  0  0  0
  -22.5735   -2.5937   33.5566 C   0  0  0  0  0  0  0  0  0  0  0  0
  -22.6757   -2.2144   34.8822 C   0  0  0  0  0  0  0  0  0  0  0  0
  -23.7463   -2.6229   35.6535 C   0  0  0  0  0  0  0  0  0  0  0  0
  -24.7371   -3.4176   35.1174 C   0  0  0  0  0  0  0  0  0  0  0  0
  -20.8564   -5.4402   31.6632 C   0  0  0  0  0  0  0  0  0  0  0  0
  -21.2487   -6.2107   30.4588 C   0  0  0  0  0  0  0  0  0  0  0  0
  -20.8531   -6.8136   28.2027 C   0  0  0  0  0  0  0  0  0  0  0  0
  -21.9590   -7.6379   28.1970 C   0  0  0  0  0  0  0  0  0  0  0  0
  -22.7323   -7.7615   29.3315 C   0  0  0  0  0  0  0  0  0  0  0  0
  -22.3648   -7.0430   30.4519 C   0  0  0  0  0  0  0  0  0  0  0  0
  1  4  1  1
  1  5  2  0
  1  8  2  0
  1 10  1  0
  3  2  1  0
  6  3  2  0
 12  3  1  0
 17  4  1  1
  9  6  1  0
  6 16  1  0
 18  7  2  0
  7 19  1  0
 10  9  2  0
  9 13  1  0
 10 11  1  0
 11 12  2  0
 13 14  2  0
 14 15  1  0
 16 15  2  0
 17 18  1  0
 18 22  1  0
 19 20  2  0
 20 21  1  0
 21 22  2  0
M  END
$$$$
