
     RDKit          3D

 22 24  0  0  0  0  0  0  0  0999 V2000
  -21.7610   -4.8771   34.4450 S   0  0  1  0  0  6  0  0  0  0  0  0
  -27.6672   -4.3964   31.9871 Br  0  0  0  0  0  0  0  0  0  0  0  0
  -25.9129   -4.5333   32.7217 C   0  0  0  0  0  0  0  0  0  0  0  0
  -20.5240   -5.0123   33.3098 N   0  0  0  0  0  0  0  0  0  0  0  0
  -21.7741   -5.9947   35.4529 O   0  0  0  0  0  0  0  0  0  0  0  0
  -24.9943   -3.5070   32.5200 C   0  0  0  0  0  0  0  0  0  0  0  0
  -20.8781   -5.0445   30.3027 N   0  0  0  0  0  0  0  0  0  0  0  0
  -21.5124   -3.6006   35.2434 O   0  0  0  0  0  0  0  0  0  0  0  0
  -23.7149   -3.5836   33.0432 C   0  0  0  0  0  0  0  0  0  0  0  0
  -23.3623   -4.6981   33.7708 C   0  0  0  0  0  0  0  0  0  0  0  0
  -24.2935   -5.6991   33.9547 C   0  0  0  0  0  0  0  0  0  0  0  0
  -25.5728   -5.6542   33.4486 C   0  0  0  0  0  0  0  0  0  0  0  0
  -22.8275   -2.5375   32.8251 C   0  0  0  0  0  0  0  0  0  0  0  0
  -23.1619   -1.4102   32.1021 C   0  0  0  0  0  0  0  0  0  0  0  0
  -24.4416   -1.3573   31.5906 C   0  0  0  0  0  0  0  0  0  0  0  0
  -25.3453   -2.3822   31.7919 C   0  0  0  0  0  0  0  0  0  0  0  0
  -20.5060   -6.1704   32.4959 C   0  0  0  0  0  0  0  0  0  0  0  0
  -21.1963   -5.9953   31.1963 C   0  0  0  0  0  0  0  0  0  0  0  0
  -21.5326   -4.9158   29.1245 C   0  0  0  0  0  0  0  0  0  0  0  0
  -22.5656   -5.7587   28.7784 C   0  0  0  0  0  0  0  0  0  0  0  0
  -22.9230   -6.7524   29.6747 C   0  0  0  0  0  0  0  0  0  0  0  0
  -22.2328   -6.8559   30.8706 C   0  0  0  0  0  0  0  0  0  0  0  0
  1  4  1  6
  1  5  2  0
  1  8  2  0
  1 10  1  0
  3  2  1  0
  6  3  2  0
 12  3  1  0
 17  4  1  0
  9  6  1  0
  6 16  1  0
 18  7  2  0
  7 19  1  0
 10  9  2  0
  9 13  1  0
 10 11  1  0
 11 12  2  0
 13 14  2  0
 14 15  1  0
 16 15  2  0
 17 18  1  0
 18 22  1  0
 19 20  2  0
 20 21  1  0
 21 22  2  0
M  END
$$$$
