
     RDKit          3D

 22 24  0  0  0  0  0  0  0  0999 V2000
  -21.0380   -4.5954   31.4997 S   0  0  1  0  0  6  0  0  0  0  0  0
  -27.4091   -5.2775   31.8177 Br  0  0  0  0  0  0  0  0  0  0  0  0
  -25.5146   -5.0794   31.7287 C   0  0  0  0  0  0  0  0  0  0  0  0
  -20.3838   -5.1001   30.0319 N   0  0  0  0  0  0  0  0  0  0  0  0
  -20.3822   -5.2286   32.6973 O   0  0  0  0  0  0  0  0  0  0  0  0
  -24.8205   -4.5517   32.8139 C   0  0  0  0  0  0  0  0  0  0  0  0
  -22.0945   -8.1281   29.7405 N   0  0  0  0  0  0  0  0  0  0  0  0
  -20.7769   -3.0973   31.6266 O   0  0  0  0  0  0  0  0  0  0  0  0
  -23.4454   -4.3981   32.7731 C   0  0  0  0  0  0  0  0  0  0  0  0
  -22.7699   -4.7775   31.6348 C   0  0  0  0  0  0  0  0  0  0  0  0
  -23.4839   -5.2977   30.5753 C   0  0  0  0  0  0  0  0  0  0  0  0
  -24.8504   -5.4636   30.5835 C   0  0  0  0  0  0  0  0  0  0  0  0
  -22.7870   -3.8723   33.8774 C   0  0  0  0  0  0  0  0  0  0  0  0
  -23.4445   -3.4894   35.0291 C   0  0  0  0  0  0  0  0  0  0  0  0
  -24.8139   -3.6514   35.0455 C   0  0  0  0  0  0  0  0  0  0  0  0
  -25.4951   -4.1719   33.9626 C   0  0  0  0  0  0  0  0  0  0  0  0
  -20.2157   -6.4917   29.8340 C   0  0  0  0  0  0  0  0  0  0  0  0
  -21.3738   -7.1439   29.1785 C   0  0  0  0  0  0  0  0  0  0  0  0
  -23.1471   -8.7000   29.1096 C   0  0  0  0  0  0  0  0  0  0  0  0
  -23.5366   -8.2997   27.8504 C   0  0  0  0  0  0  0  0  0  0  0  0
  -22.8174   -7.2867   27.2381 C   0  0  0  0  0  0  0  0  0  0  0  0
  -21.7465   -6.7237   27.9113 C   0  0  0  0  0  0  0  0  0  0  0  0
  1  4  1  6
  1  5  2  0
  1  8  2  0
  1 10  1  0
  3  2  1  0
  6  3  2  0
 12  3  1  0
 17  4  1  0
  9  6  1  0
  6 16  1  0
 18  7  2  0
  7 19  1  0
 10  9  2  0
  9 13  1  0
 10 11  1  0
 11 12  2  0
 13 14  2  0
 14 15  1  0
 16 15  2  0
 17 18  1  0
 18 22  1  0
 19 20  2  0
 20 21  1  0
 21 22  2  0
M  END
$$$$
