
     RDKit          3D

 22 24  0  0  0  0  0  0  0  0999 V2000
  -22.6661   -3.4284   29.7216 S   0  0  1  0  0  6  0  0  0  0  0  0
  -26.9507   -5.3816   34.0435 Br  0  0  0  0  0  0  0  0  0  0  0  0
  -25.6797   -4.7578   32.7938 C   0  0  0  0  0  0  0  0  0  0  0  0
  -21.4371   -4.6204   29.5145 N   0  0  0  0  0  0  0  0  0  0  0  0
  -22.0654   -2.0709   29.9847 O   0  0  0  0  0  0  0  0  0  0  0  0
  -24.6919   -3.8384   33.1044 C   0  0  0  0  0  0  0  0  0  0  0  0
  -20.4350   -5.6786   32.0007 N   0  0  0  0  0  0  0  0  0  0  0  0
  -23.3568   -3.2996   28.3920 O   0  0  0  0  0  0  0  0  0  0  0  0
  -23.7559   -3.3761   32.1949 C   0  0  0  0  0  0  0  0  0  0  0  0
  -23.8313   -3.8762   30.9107 C   0  0  0  0  0  0  0  0  0  0  0  0
  -24.8036   -4.7989   30.5474 C   0  0  0  0  0  0  0  0  0  0  0  0
  -25.7050   -5.2212   31.4885 C   0  0  0  0  0  0  0  0  0  0  0  0
  -22.7974   -2.4501   32.5277 C   0  0  0  0  0  0  0  0  0  0  0  0
  -22.7792   -1.9746   33.8258 C   0  0  0  0  0  0  0  0  0  0  0  0
  -23.6997   -2.4201   34.7543 C   0  0  0  0  0  0  0  0  0  0  0  0
  -24.6576   -3.3485   34.4061 C   0  0  0  0  0  0  0  0  0  0  0  0
  -21.9096   -5.9204   30.0363 C   0  0  0  0  0  0  0  0  0  0  0  0
  -21.6322   -6.0166   31.4895 C   0  0  0  0  0  0  0  0  0  0  0  0
  -20.1339   -5.7471   33.3040 C   0  0  0  0  0  0  0  0  0  0  0  0
  -21.0885   -6.1866   34.1974 C   0  0  0  0  0  0  0  0  0  0  0  0
  -22.3391   -6.5505   33.7461 C   0  0  0  0  0  0  0  0  0  0  0  0
  -22.5950   -6.4600   32.3922 C   0  0  0  0  0  0  0  0  0  0  0  0
  1  4  1  6
  1  5  2  0
  1  8  2  0
  1 10  1  0
  3  2  1  0
  6  3  2  0
 12  3  1  0
 17  4  1  1
  9  6  1  0
  6 16  1  0
 18  7  2  0
  7 19  1  0
 10  9  2  0
  9 13  1  0
 10 11  1  0
 11 12  2  0
 13 14  2  0
 14 15  1  0
 16 15  2  0
 17 18  1  0
 18 22  1  0
 19 20  2  0
 20 21  1  0
 21 22  2  0
M  END
$$$$
