
     RDKit          3D

 22 24  0  0  0  0  0  0  0  0999 V2000
  -20.7996   -4.9676   31.0060 S   0  0  1  0  0  6  0  0  0  0  0  0
  -27.2073   -4.7960   31.2678 Br  0  0  0  0  0  0  0  0  0  0  0  0
  -25.3028   -4.8541   31.1916 C   0  0  0  0  0  0  0  0  0  0  0  0
  -20.1487   -6.3612   30.3195 N   0  0  0  0  0  0  0  0  0  0  0  0
  -20.2164   -4.6345   32.3529 O   0  0  0  0  0  0  0  0  0  0  0  0
  -24.5727   -5.1831   32.3303 C   0  0  0  0  0  0  0  0  0  0  0  0
  -22.4665   -7.3652   27.7177 N   0  0  0  0  0  0  0  0  0  0  0  0
  -20.4385   -3.7971   30.0960 O   0  0  0  0  0  0  0  0  0  0  0  0
  -23.1896   -5.2317   32.2999 C   0  0  0  0  0  0  0  0  0  0  0  0
  -22.5425   -4.9474   31.1182 C   0  0  0  0  0  0  0  0  0  0  0  0
  -23.2920   -4.6249   30.0059 C   0  0  0  0  0  0  0  0  0  0  0  0
  -24.6674   -4.5679   30.0023 C   0  0  0  0  0  0  0  0  0  0  0  0
  -22.4956   -5.5686   33.4550 C   0  0  0  0  0  0  0  0  0  0  0  0
  -23.1249   -5.8607   34.6484 C   0  0  0  0  0  0  0  0  0  0  0  0
  -24.5028   -5.8050   34.6538 C   0  0  0  0  0  0  0  0  0  0  0  0
  -25.2191   -5.4735   33.5205 C   0  0  0  0  0  0  0  0  0  0  0  0
  -20.4370   -6.6161   28.9572 C   0  0  0  0  0  0  0  0  0  0  0  0
  -21.6178   -7.4875   28.7515 C   0  0  0  0  0  0  0  0  0  0  0  0
  -23.5357   -8.1813   27.5636 C   0  0  0  0  0  0  0  0  0  0  0  0
  -23.8109   -9.1862   28.4647 C   0  0  0  0  0  0  0  0  0  0  0  0
  -22.9579   -9.3436   29.5446 C   0  0  0  0  0  0  0  0  0  0  0  0
  -21.8739   -8.4917   29.6720 C   0  0  0  0  0  0  0  0  0  0  0  0
  1  4  1  6
  1  5  2  0
  1  8  2  0
  1 10  1  0
  3  2  1  0
  6  3  2  0
 12  3  1  0
 17  4  1  0
  9  6  1  0
  6 16  1  0
 18  7  2  0
  7 19  1  0
 10  9  2  0
  9 13  1  0
 10 11  1  0
 11 12  2  0
 13 14  2  0
 14 15  1  0
 16 15  2  0
 17 18  1  0
 18 22  1  0
 19 20  2  0
 20 21  1  0
 21 22  2  0
M  END
$$$$
