
     RDKit          3D

 22 24  0  0  0  0  0  0  0  0999 V2000
  -22.1495   -3.9129   30.6435 S   0  0  1  0  0  6  0  0  0  0  0  0
  -27.6751   -5.3612   33.5635 Br  0  0  0  0  0  0  0  0  0  0  0  0
  -26.0363   -4.9271   32.6904 C   0  0  0  0  0  0  0  0  0  0  0  0
  -21.0538   -3.1168   31.6449 N   0  0  0  0  0  0  0  0  0  0  0  0
  -22.4160   -3.1886   29.3514 O   0  0  0  0  0  0  0  0  0  0  0  0
  -25.7943   -5.3893   31.3998 C   0  0  0  0  0  0  0  0  0  0  0  0
  -21.9558   -2.1897   34.2603 N   0  0  0  0  0  0  0  0  0  0  0  0
  -21.5238   -5.2479   30.2499 O   0  0  0  0  0  0  0  0  0  0  0  0
  -24.6123   -5.0875   30.7454 C   0  0  0  0  0  0  0  0  0  0  0  0
  -23.6732   -4.3183   31.3951 C   0  0  0  0  0  0  0  0  0  0  0  0
  -23.9405   -3.8741   32.6734 C   0  0  0  0  0  0  0  0  0  0  0  0
  -25.1047   -4.1558   33.3518 C   0  0  0  0  0  0  0  0  0  0  0  0
  -24.4087   -5.5625   29.4561 C   0  0  0  0  0  0  0  0  0  0  0  0
  -25.3385   -6.3317   28.7858 C   0  0  0  0  0  0  0  0  0  0  0  0
  -26.5075   -6.6194   29.4585 C   0  0  0  0  0  0  0  0  0  0  0  0
  -26.7375   -6.1604   30.7406 C   0  0  0  0  0  0  0  0  0  0  0  0
  -20.6592   -3.7727   32.8358 C   0  0  0  0  0  0  0  0  0  0  0  0
  -21.4928   -3.4255   34.0108 C   0  0  0  0  0  0  0  0  0  0  0  0
  -22.7155   -1.9110   35.3458 C   0  0  0  0  0  0  0  0  0  0  0  0
  -23.0555   -2.8866   36.2569 C   0  0  0  0  0  0  0  0  0  0  0  0
  -22.5964   -4.1741   36.0335 C   0  0  0  0  0  0  0  0  0  0  0  0
  -21.8217   -4.4245   34.9136 C   0  0  0  0  0  0  0  0  0  0  0  0
  1  4  1  1
  1  5  2  0
  1  8  2  0
  1 10  1  0
  3  2  1  0
  6  3  2  0
 12  3  1  0
 17  4  1  0
  9  6  1  0
  6 16  1  0
 18  7  2  0
  7 19  1  0
 10  9  2  0
  9 13  1  0
 10 11  1  0
 11 12  2  0
 13 14  2  0
 14 15  1  0
 16 15  2  0
 17 18  1  0
 18 22  1  0
 19 20  2  0
 20 21  1  0
 21 22  2  0
M  END
$$$$
