
     RDKit          3D

 22 24  0  0  0  0  0  0  0  0999 V2000
  -21.1857   -4.4459   32.3379 S   0  0  1  0  0  6  0  0  0  0  0  0
  -27.1453   -5.6795   34.3673 Br  0  0  0  0  0  0  0  0  0  0  0  0
  -25.3760   -5.3063   33.7618 C   0  0  0  0  0  0  0  0  0  0  0  0
  -20.3373   -5.7966   31.7965 N   0  0  0  0  0  0  0  0  0  0  0  0
  -20.4715   -3.6846   33.4221 O   0  0  0  0  0  0  0  0  0  0  0  0
  -25.1404   -5.0721   32.4099 C   0  0  0  0  0  0  0  0  0  0  0  0
  -21.0147   -6.1752   29.0946 N   0  0  0  0  0  0  0  0  0  0  0  0
  -21.3070   -3.4799   31.1628 O   0  0  0  0  0  0  0  0  0  0  0  0
  -23.8648   -4.7992   31.9463 C   0  0  0  0  0  0  0  0  0  0  0  0
  -22.8256   -4.7630   32.8488 C   0  0  0  0  0  0  0  0  0  0  0  0
  -23.0890   -4.9986   34.1822 C   0  0  0  0  0  0  0  0  0  0  0  0
  -24.3445   -5.2725   34.6757 C   0  0  0  0  0  0  0  0  0  0  0  0
  -23.6696   -4.5659   30.5910 C   0  0  0  0  0  0  0  0  0  0  0  0
  -24.6978   -4.5937   29.6705 C   0  0  0  0  0  0  0  0  0  0  0  0
  -25.9590   -4.8682   30.1563 C   0  0  0  0  0  0  0  0  0  0  0  0
  -26.1831   -5.1037   31.4987 C   0  0  0  0  0  0  0  0  0  0  0  0
  -21.0868   -6.9503   31.4632 C   0  0  0  0  0  0  0  0  0  0  0  0
  -21.3102   -7.1150   30.0075 C   0  0  0  0  0  0  0  0  0  0  0  0
  -21.2335   -6.3626   27.7717 C   0  0  0  0  0  0  0  0  0  0  0  0
  -21.7740   -7.5344   27.2897 C   0  0  0  0  0  0  0  0  0  0  0  0
  -22.0920   -8.5277   28.2012 C   0  0  0  0  0  0  0  0  0  0  0  0
  -21.8553   -8.3032   29.5468 C   0  0  0  0  0  0  0  0  0  0  0  0
  1  4  1  6
  1  5  2  0
  1  8  2  0
  1 10  1  0
  3  2  1  0
  6  3  2  0
 12  3  1  0
 17  4  1  0
  9  6  1  0
  6 16  1  0
 18  7  2  0
  7 19  1  0
 10  9  2  0
  9 13  1  0
 10 11  1  0
 11 12  2  0
 13 14  2  0
 14 15  1  0
 16 15  2  0
 17 18  1  0
 18 22  1  0
 19 20  2  0
 20 21  1  0
 21 22  2  0
M  END
$$$$
