
     RDKit          3D

 22 24  0  0  0  0  0  0  0  0999 V2000
  -21.4449   -5.3116   34.2707 S   0  0  1  0  0  6  0  0  0  0  0  0
  -27.7037   -5.0397   33.0039 Br  0  0  0  0  0  0  0  0  0  0  0  0
  -25.8492   -5.0694   33.3593 C   0  0  0  0  0  0  0  0  0  0  0  0
  -20.4179   -4.9596   32.9307 N   0  0  0  0  0  0  0  0  0  0  0  0
  -21.1026   -6.6478   34.8792 O   0  0  0  0  0  0  0  0  0  0  0  0
  -25.1054   -3.9326   33.6275 C   0  0  0  0  0  0  0  0  0  0  0  0
  -21.5794   -4.0037   30.6691 N   0  0  0  0  0  0  0  0  0  0  0  0
  -21.1124   -4.3010   35.3335 O   0  0  0  0  0  0  0  0  0  0  0  0
  -23.7459   -3.9451   33.8895 C   0  0  0  0  0  0  0  0  0  0  0  0
  -23.1180   -5.1742   33.8786 C   0  0  0  0  0  0  0  0  0  0  0  0
  -23.8180   -6.3441   33.6138 C   0  0  0  0  0  0  0  0  0  0  0  0
  -25.1623   -6.2726   33.3606 C   0  0  0  0  0  0  0  0  0  0  0  0
  -23.0306   -2.7986   34.1355 C   0  0  0  0  0  0  0  0  0  0  0  0
  -23.7107   -1.5950   34.1200 C   0  0  0  0  0  0  0  0  0  0  0  0
  -25.0673   -1.5533   33.8635 C   0  0  0  0  0  0  0  0  0  0  0  0
  -25.7726   -2.7119   33.6164 C   0  0  0  0  0  0  0  0  0  0  0  0
  -20.6395   -5.9520   31.8576 C   0  0  0  0  0  0  0  0  0  0  0  0
  -21.3932   -5.3338   30.7405 C   0  0  0  0  0  0  0  0  0  0  0  0
  -22.2516   -3.3963   29.6826 C   0  0  0  0  0  0  0  0  0  0  0  0
  -22.7957   -4.1545   28.6670 C   0  0  0  0  0  0  0  0  0  0  0  0
  -22.6453   -5.5248   28.6734 C   0  0  0  0  0  0  0  0  0  0  0  0
  -21.9429   -6.0982   29.7149 C   0  0  0  0  0  0  0  0  0  0  0  0
  1  4  1  6
  1  5  2  0
  1  8  2  0
  1 10  1  0
  3  2  1  0
  6  3  2  0
 12  3  1  0
 17  4  1  1
  9  6  1  0
  6 16  1  0
 18  7  2  0
  7 19  1  0
 10  9  2  0
  9 13  1  0
 10 11  1  0
 11 12  2  0
 13 14  2  0
 14 15  1  0
 16 15  2  0
 17 18  1  0
 18 22  1  0
 19 20  2  0
 20 21  1  0
 21 22  2  0
M  END
$$$$
