
     RDKit          3D

 22 24  0  0  0  0  0  0  0  0999 V2000
  -21.4700   -6.0209   32.4871 S   0  0  1  0  0  6  0  0  0  0  0  0
  -27.7347   -5.1197   31.5965 Br  0  0  0  0  0  0  0  0  0  0  0  0
  -25.8822   -5.3408   31.8897 C   0  0  0  0  0  0  0  0  0  0  0  0
  -20.4968   -4.6060   32.3288 N   0  0  0  0  0  0  0  0  0  0  0  0
  -20.9728   -7.1239   31.5876 O   0  0  0  0  0  0  0  0  0  0  0  0
  -25.2239   -4.8581   33.0082 C   0  0  0  0  0  0  0  0  0  0  0  0
  -22.2852   -3.5041   29.4736 N   0  0  0  0  0  0  0  0  0  0  0  0
  -21.2517   -6.5283   33.8858 O   0  0  0  0  0  0  0  0  0  0  0  0
  -23.8666   -5.0161   33.2316 C   0  0  0  0  0  0  0  0  0  0  0  0
  -23.1496   -5.6988   32.2699 C   0  0  0  0  0  0  0  0  0  0  0  0
  -23.7618   -6.2016   31.1292 C   0  0  0  0  0  0  0  0  0  0  0  0
  -25.1083   -6.0156   30.9596 C   0  0  0  0  0  0  0  0  0  0  0  0
  -23.2373   -4.5111   34.3432 C   0  0  0  0  0  0  0  0  0  0  0  0
  -24.0045   -3.8242   35.2658 C   0  0  0  0  0  0  0  0  0  0  0  0
  -25.3611   -3.6536   35.0694 C   0  0  0  0  0  0  0  0  0  0  0  0
  -25.9794   -4.1643   33.9480 C   0  0  0  0  0  0  0  0  0  0  0  0
  -20.4058   -4.2195   30.9047 C   0  0  0  0  0  0  0  0  0  0  0  0
  -21.5137   -3.2981   30.5559 C   0  0  0  0  0  0  0  0  0  0  0  0
  -23.2969   -2.7031   29.1150 C   0  0  0  0  0  0  0  0  0  0  0  0
  -23.5875   -1.5943   29.8823 C   0  0  0  0  0  0  0  0  0  0  0  0
  -22.8392   -1.3190   31.0068 C   0  0  0  0  0  0  0  0  0  0  0  0
  -21.8079   -2.1787   31.3296 C   0  0  0  0  0  0  0  0  0  0  0  0
  1  4  1  1
  1  5  2  0
  1  8  2  0
  1 10  1  0
  3  2  1  0
  6  3  2  0
 12  3  1  0
 17  4  1  1
  9  6  1  0
  6 16  1  0
 18  7  2  0
  7 19  1  0
 10  9  2  0
  9 13  1  0
 10 11  1  0
 11 12  2  0
 13 14  2  0
 14 15  1  0
 16 15  2  0
 17 18  1  0
 18 22  1  0
 19 20  2  0
 20 21  1  0
 21 22  2  0
M  END
$$$$
