
     RDKit          3D

 22 24  0  0  0  0  0  0  0  0999 V2000
  -22.0938   -3.0437   30.3832 S   0  0  1  0  0  6  0  0  0  0  0  0
  -26.4546   -7.3776   28.5509 Br  0  0  0  0  0  0  0  0  0  0  0  0
  -25.1552   -6.0899   29.0891 C   0  0  0  0  0  0  0  0  0  0  0  0
  -22.1196   -2.6996   32.0318 N   0  0  0  0  0  0  0  0  0  0  0  0
  -22.2365   -1.8232   29.5141 O   0  0  0  0  0  0  0  0  0  0  0  0
  -23.8112   -6.4465   29.1550 C   0  0  0  0  0  0  0  0  0  0  0  0
  -23.0988   -3.6897   35.2124 N   0  0  0  0  0  0  0  0  0  0  0  0
  -20.7216   -3.6268   30.0583 O   0  0  0  0  0  0  0  0  0  0  0  0
  -22.8494   -5.5294   29.5430 C   0  0  0  0  0  0  0  0  0  0  0  0
  -23.2452   -4.2506   29.8651 C   0  0  0  0  0  0  0  0  0  0  0  0
  -24.5838   -3.9258   29.7902 C   0  0  0  0  0  0  0  0  0  0  0  0
  -25.5646   -4.8130   29.4084 C   0  0  0  0  0  0  0  0  0  0  0  0
  -21.5176   -5.9207   29.5921 C   0  0  0  0  0  0  0  0  0  0  0  0
  -21.0993   -7.1961   29.2697 C   0  0  0  0  0  0  0  0  0  0  0  0
  -22.0757   -8.0917   28.8869 C   0  0  0  0  0  0  0  0  0  0  0  0
  -23.4075   -7.7306   28.8284 C   0  0  0  0  0  0  0  0  0  0  0  0
  -22.1022   -3.7942   32.9294 C   0  0  0  0  0  0  0  0  0  0  0  0
  -23.2380   -3.8016   33.8812 C   0  0  0  0  0  0  0  0  0  0  0  0
  -24.1618   -3.7007   36.0509 C   0  0  0  0  0  0  0  0  0  0  0  0
  -25.4499   -3.8279   35.5796 C   0  0  0  0  0  0  0  0  0  0  0  0
  -25.6337   -3.9457   34.2118 C   0  0  0  0  0  0  0  0  0  0  0  0
  -24.5248   -3.9308   33.3828 C   0  0  0  0  0  0  0  0  0  0  0  0
  1  4  1  1
  1  5  2  0
  1  8  2  0
  1 10  1  0
  3  2  1  0
  6  3  2  0
 12  3  1  0
 17  4  1  0
  9  6  1  0
  6 16  1  0
 18  7  2  0
  7 19  1  0
 10  9  2  0
  9 13  1  0
 10 11  1  0
 11 12  2  0
 13 14  2  0
 14 15  1  0
 16 15  2  0
 17 18  1  0
 18 22  1  0
 19 20  2  0
 20 21  1  0
 21 22  2  0
M  END
$$$$
