
     RDKit          3D

 22 24  0  0  0  0  0  0  0  0999 V2000
  -22.1871   -3.7656   30.3191 S   0  0  1  0  0  6  0  0  0  0  0  0
  -27.5399   -5.6205   33.3296 Br  0  0  0  0  0  0  0  0  0  0  0  0
  -25.9451   -5.0701   32.4409 C   0  0  0  0  0  0  0  0  0  0  0  0
  -20.7696   -4.5045   30.8499 N   0  0  0  0  0  0  0  0  0  0  0  0
  -22.1056   -2.2630   30.2917 O   0  0  0  0  0  0  0  0  0  0  0  0
  -25.2646   -3.9363   32.8758 C   0  0  0  0  0  0  0  0  0  0  0  0
  -21.7011   -5.6047   34.1914 N   0  0  0  0  0  0  0  0  0  0  0  0
  -22.4140   -4.1957   28.8726 O   0  0  0  0  0  0  0  0  0  0  0  0
  -24.1049   -3.5169   32.2468 C   0  0  0  0  0  0  0  0  0  0  0  0
  -23.6318   -4.2430   31.1769 C   0  0  0  0  0  0  0  0  0  0  0  0
  -24.3268   -5.3624   30.7684 C   0  0  0  0  0  0  0  0  0  0  0  0
  -25.4819   -5.8063   31.3714 C   0  0  0  0  0  0  0  0  0  0  0  0
  -23.4508   -2.3834   32.7124 C   0  0  0  0  0  0  0  0  0  0  0  0
  -23.9060   -1.6436   33.7852 C   0  0  0  0  0  0  0  0  0  0  0  0
  -25.0632   -2.0809   34.3948 C   0  0  0  0  0  0  0  0  0  0  0  0
  -25.7345   -3.2045   33.9539 C   0  0  0  0  0  0  0  0  0  0  0  0
  -20.8867   -5.5127   31.8367 C   0  0  0  0  0  0  0  0  0  0  0  0
  -21.0192   -4.9841   33.2148 C   0  0  0  0  0  0  0  0  0  0  0  0
  -21.7997   -5.0899   35.4398 C   0  0  0  0  0  0  0  0  0  0  0  0
  -21.2021   -3.8952   35.7757 C   0  0  0  0  0  0  0  0  0  0  0  0
  -20.4897   -3.2253   34.7948 C   0  0  0  0  0  0  0  0  0  0  0  0
  -20.4088   -3.7799   33.5286 C   0  0  0  0  0  0  0  0  0  0  0  0
  1  4  1  1
  1  5  2  0
  1  8  2  0
  1 10  1  0
  3  2  1  0
  6  3  2  0
 12  3  1  0
 17  4  1  0
  9  6  1  0
  6 16  1  0
 18  7  2  0
  7 19  1  0
 10  9  2  0
  9 13  1  0
 10 11  1  0
 11 12  2  0
 13 14  2  0
 14 15  1  0
 16 15  2  0
 17 18  1  0
 18 22  1  0
 19 20  2  0
 20 21  1  0
 21 22  2  0
M  END
$$$$
