
     RDKit          3D

 22 24  0  0  0  0  0  0  0  0999 V2000
  -21.8079   -4.3831   30.5115 S   0  0  1  0  0  6  0  0  0  0  0  0
  -25.0329   -4.4080   36.0297 Br  0  0  0  0  0  0  0  0  0  0  0  0
  -24.1155   -4.4365   34.3792 C   0  0  0  0  0  0  0  0  0  0  0  0
  -20.6504   -5.6544   30.3777 N   0  0  0  0  0  0  0  0  0  0  0  0
  -21.1610   -3.0373   30.3038 O   0  0  0  0  0  0  0  0  0  0  0  0
  -24.7268   -4.7286   33.1715 C   0  0  0  0  0  0  0  0  0  0  0  0
  -21.3116   -7.5080   28.3647 N   0  0  0  0  0  0  0  0  0  0  0  0
  -22.7504   -4.5475   29.3512 O   0  0  0  0  0  0  0  0  0  0  0  0
  -24.0624   -4.7513   31.9570 C   0  0  0  0  0  0  0  0  0  0  0  0
  -22.7131   -4.4612   31.9766 C   0  0  0  0  0  0  0  0  0  0  0  0
  -22.0522   -4.1631   33.1612 C   0  0  0  0  0  0  0  0  0  0  0  0
  -22.7596   -4.1557   34.3342 C   0  0  0  0  0  0  0  0  0  0  0  0
  -24.6920   -5.0615   30.7763 C   0  0  0  0  0  0  0  0  0  0  0  0
  -26.0419   -5.3568   30.8203 C   0  0  0  0  0  0  0  0  0  0  0  0
  -26.7302   -5.3397   32.0178 C   0  0  0  0  0  0  0  0  0  0  0  0
  -26.0852   -5.0283   33.1958 C   0  0  0  0  0  0  0  0  0  0  0  0
  -21.2720   -6.9384   30.7659 C   0  0  0  0  0  0  0  0  0  0  0  0
  -21.8813   -7.5876   29.5804 C   0  0  0  0  0  0  0  0  0  0  0  0
  -21.8208   -8.0755   27.2634 C   0  0  0  0  0  0  0  0  0  0  0  0
  -22.9975   -8.7896   27.3519 C   0  0  0  0  0  0  0  0  0  0  0  0
  -23.6385   -8.9142   28.5658 C   0  0  0  0  0  0  0  0  0  0  0  0
  -23.0690   -8.3087   29.6685 C   0  0  0  0  0  0  0  0  0  0  0  0
  1  4  1  1
  1  5  2  0
  1  8  2  0
  1 10  1  0
  3  2  1  0
  6  3  2  0
 12  3  1  0
 17  4  1  1
  9  6  1  0
  6 16  1  0
 18  7  2  0
  7 19  1  0
 10  9  2  0
  9 13  1  0
 10 11  1  0
 11 12  2  0
 13 14  2  0
 14 15  1  0
 16 15  2  0
 17 18  1  0
 18 22  1  0
 19 20  2  0
 20 21  1  0
 21 22  2  0
M  END
$$$$
