
     RDKit          3D

 22 24  0  0  0  0  0  0  0  0999 V2000
  -22.6901   -4.1443   29.9169 S   0  0  1  0  0  6  0  0  0  0  0  0
  -27.1366   -4.9866   34.4640 Br  0  0  0  0  0  0  0  0  0  0  0  0
  -25.8108   -4.7414   33.1155 C   0  0  0  0  0  0  0  0  0  0  0  0
  -22.5295   -5.4419   28.8550 N   0  0  0  0  0  0  0  0  0  0  0  0
  -21.3864   -3.7040   30.5265 O   0  0  0  0  0  0  0  0  0  0  0  0
  -24.5335   -4.3146   33.4679 C   0  0  0  0  0  0  0  0  0  0  0  0
  -21.2311   -7.6750   27.3319 N   0  0  0  0  0  0  0  0  0  0  0  0
  -23.1951   -2.9518   29.1098 O   0  0  0  0  0  0  0  0  0  0  0  0
  -23.5543   -4.1293   32.5070 C   0  0  0  0  0  0  0  0  0  0  0  0
  -23.8653   -4.3750   31.1884 C   0  0  0  0  0  0  0  0  0  0  0  0
  -25.1390   -4.7973   30.8689 C   0  0  0  0  0  0  0  0  0  0  0  0
  -26.1350   -4.9913   31.7991 C   0  0  0  0  0  0  0  0  0  0  0  0
  -22.2899   -3.7073   32.8975 C   0  0  0  0  0  0  0  0  0  0  0  0
  -21.9566   -3.4591   34.2139 C   0  0  0  0  0  0  0  0  0  0  0  0
  -22.9488   -3.6502   35.1524 C   0  0  0  0  0  0  0  0  0  0  0  0
  -24.2148   -4.0697   34.7934 C   0  0  0  0  0  0  0  0  0  0  0  0
  -22.2128   -6.7057   29.4087 C   0  0  0  0  0  0  0  0  0  0  0  0
  -21.1723   -7.4426   28.6534 C   0  0  0  0  0  0  0  0  0  0  0  0
  -20.2597   -8.3529   26.6762 C   0  0  0  0  0  0  0  0  0  0  0  0
  -19.1533   -8.8430   27.3343 C   0  0  0  0  0  0  0  0  0  0  0  0
  -19.0571   -8.6231   28.6985 C   0  0  0  0  0  0  0  0  0  0  0  0
  -20.0682   -7.9260   29.3379 C   0  0  0  0  0  0  0  0  0  0  0  0
  1  4  1  6
  1  5  2  0
  1  8  2  0
  1 10  1  0
  3  2  1  0
  6  3  2  0
 12  3  1  0
 17  4  1  0
  9  6  1  0
  6 16  1  0
 18  7  2  0
  7 19  1  0
 10  9  2  0
  9 13  1  0
 10 11  1  0
 11 12  2  0
 13 14  2  0
 14 15  1  0
 16 15  2  0
 17 18  1  0
 18 22  1  0
 19 20  2  0
 20 21  1  0
 21 22  2  0
M  END
$$$$
