
     RDKit          3D

 22 24  0  0  0  0  0  0  0  0999 V2000
  -21.6595   -6.0119   30.7015 S   0  0  1  0  0  6  0  0  0  0  0  0
  -26.8843   -5.2703   34.3074 Br  0  0  0  0  0  0  0  0  0  0  0  0
  -25.3721   -5.5061   33.2011 C   0  0  0  0  0  0  0  0  0  0  0  0
  -20.2603   -5.5230   31.5833 N   0  0  0  0  0  0  0  0  0  0  0  0
  -21.7402   -5.2998   29.3752 O   0  0  0  0  0  0  0  0  0  0  0  0
  -25.4157   -5.4159   31.8200 C   0  0  0  0  0  0  0  0  0  0  0  0
  -21.7127   -2.5197   32.8178 N   0  0  0  0  0  0  0  0  0  0  0  0
  -21.4547   -7.4611   30.3558 O   0  0  0  0  0  0  0  0  0  0  0  0
  -24.3122   -5.5867   31.0013 C   0  0  0  0  0  0  0  0  0  0  0  0
  -23.1098   -5.8608   31.6211 C   0  0  0  0  0  0  0  0  0  0  0  0
  -23.0126   -5.9631   33.0028 C   0  0  0  0  0  0  0  0  0  0  0  0
  -24.1374   -5.7852   33.7641 C   0  0  0  0  0  0  0  0  0  0  0  0
  -24.3891   -5.5082   29.6321 C   0  0  0  0  0  0  0  0  0  0  0  0
  -25.6230   -5.2447   29.0668 C   0  0  0  0  0  0  0  0  0  0  0  0
  -26.7401   -5.0678   29.8597 C   0  0  0  0  0  0  0  0  0  0  0  0
  -26.6488   -5.1511   31.2328 C   0  0  0  0  0  0  0  0  0  0  0  0
  -20.1859   -4.0470   31.6230 C   0  0  0  0  0  0  0  0  0  0  0  0
  -20.8348   -3.5378   32.8549 C   0  0  0  0  0  0  0  0  0  0  0  0
  -22.3256   -2.0230   33.9003 C   0  0  0  0  0  0  0  0  0  0  0  0
  -22.0598   -2.5684   35.1390 C   0  0  0  0  0  0  0  0  0  0  0  0
  -21.1703   -3.6151   35.2546 C   0  0  0  0  0  0  0  0  0  0  0  0
  -20.5672   -4.0875   34.1058 C   0  0  0  0  0  0  0  0  0  0  0  0
  1  4  1  1
  1  5  2  0
  1  8  2  0
  1 10  1  0
  3  2  1  0
  6  3  2  0
 12  3  1  0
 17  4  1  1
  9  6  1  0
  6 16  1  0
 18  7  2  0
  7 19  1  0
 10  9  2  0
  9 13  1  0
 10 11  1  0
 11 12  2  0
 13 14  2  0
 14 15  1  0
 16 15  2  0
 17 18  1  0
 18 22  1  0
 19 20  2  0
 20 21  1  0
 21 22  2  0
M  END
$$$$
