
     RDKit          3D

 22 24  0  0  0  0  0  0  0  0999 V2000
  -22.7450   -3.4355   30.1368 S   0  0  1  0  0  6  0  0  0  0  0  0
  -25.6484   -2.1645   35.7146 Br  0  0  0  0  0  0  0  0  0  0  0  0
  -24.7917   -2.5412   34.0531 C   0  0  0  0  0  0  0  0  0  0  0  0
  -21.8803   -4.8804   30.0943 N   0  0  0  0  0  0  0  0  0  0  0  0
  -21.9203   -2.2325   29.7656 O   0  0  0  0  0  0  0  0  0  0  0  0
  -25.2063   -3.6290   33.2898 C   0  0  0  0  0  0  0  0  0  0  0  0
  -21.9460   -6.5054   32.6083 N   0  0  0  0  0  0  0  0  0  0  0  0
  -23.8433   -3.5279   29.0814 O   0  0  0  0  0  0  0  0  0  0  0  0
  -24.5998   -3.9228   32.0805 C   0  0  0  0  0  0  0  0  0  0  0  0
  -23.5731   -3.1173   31.6414 C   0  0  0  0  0  0  0  0  0  0  0  0
  -23.1838   -2.0463   32.4187 C   0  0  0  0  0  0  0  0  0  0  0  0
  -23.7654   -1.7267   33.6248 C   0  0  0  0  0  0  0  0  0  0  0  0
  -25.0443   -5.0137   31.3444 C   0  0  0  0  0  0  0  0  0  0  0  0
  -26.0740   -5.8313   31.7646 C   0  0  0  0  0  0  0  0  0  0  0  0
  -26.6618   -5.5188   32.9723 C   0  0  0  0  0  0  0  0  0  0  0  0
  -26.2412   -4.4401   33.7254 C   0  0  0  0  0  0  0  0  0  0  0  0
  -20.7854   -5.0144   30.9816 C   0  0  0  0  0  0  0  0  0  0  0  0
  -21.1744   -5.4374   32.3475 C   0  0  0  0  0  0  0  0  0  0  0  0
  -22.2804   -6.8609   33.8712 C   0  0  0  0  0  0  0  0  0  0  0  0
  -21.8440   -6.1412   34.9617 C   0  0  0  0  0  0  0  0  0  0  0  0
  -21.0458   -5.0326   34.7328 C   0  0  0  0  0  0  0  0  0  0  0  0
  -20.7228   -4.6971   33.4288 C   0  0  0  0  0  0  0  0  0  0  0  0
  1  4  1  1
  1  5  2  0
  1  8  2  0
  1 10  1  0
  3  2  1  0
  6  3  2  0
 12  3  1  0
 17  4  1  0
  9  6  1  0
  6 16  1  0
 18  7  2  0
  7 19  1  0
 10  9  2  0
  9 13  1  0
 10 11  1  0
 11 12  2  0
 13 14  2  0
 14 15  1  0
 16 15  2  0
 17 18  1  0
 18 22  1  0
 19 20  2  0
 20 21  1  0
 21 22  2  0
M  END
$$$$
