
     RDKit          3D

 22 24  0  0  0  0  0  0  0  0999 V2000
  -21.4164   -3.9049   33.2786 S   0  0  1  0  0  6  0  0  0  0  0  0
  -27.7104   -4.9873   33.5352 Br  0  0  0  0  0  0  0  0  0  0  0  0
  -25.8526   -4.6741   33.4055 C   0  0  0  0  0  0  0  0  0  0  0  0
  -20.4652   -5.3293   33.0776 N   0  0  0  0  0  0  0  0  0  0  0  0
  -20.9823   -3.1311   34.4974 O   0  0  0  0  0  0  0  0  0  0  0  0
  -25.2431   -4.1575   32.2745 C   0  0  0  0  0  0  0  0  0  0  0  0
  -22.3203   -6.4712   30.1693 N   0  0  0  0  0  0  0  0  0  0  0  0
  -21.0914   -3.0129   32.1124 O   0  0  0  0  0  0  0  0  0  0  0  0
  -23.8822   -3.9242   32.1709 C   0  0  0  0  0  0  0  0  0  0  0  0
  -23.1092   -4.2311   33.2724 C   0  0  0  0  0  0  0  0  0  0  0  0
  -23.6711   -4.7526   34.4305 C   0  0  0  0  0  0  0  0  0  0  0  0
  -25.0238   -4.9637   34.4772 C   0  0  0  0  0  0  0  0  0  0  0  0
  -23.3030   -3.4266   31.0291 C   0  0  0  0  0  0  0  0  0  0  0  0
  -24.1258   -3.1507   29.9528 C   0  0  0  0  0  0  0  0  0  0  0  0
  -25.4871   -3.3718   30.0292 C   0  0  0  0  0  0  0  0  0  0  0  0
  -26.0549   -3.8735   31.1810 C   0  0  0  0  0  0  0  0  0  0  0  0
  -20.4905   -5.7506   31.6607 C   0  0  0  0  0  0  0  0  0  0  0  0
  -21.7318   -6.5104   31.3779 C   0  0  0  0  0  0  0  0  0  0  0  0
  -23.4408   -7.1380   29.8629 C   0  0  0  0  0  0  0  0  0  0  0  0
  -24.0485   -7.9187   30.8240 C   0  0  0  0  0  0  0  0  0  0  0  0
  -23.5022   -8.0073   32.0865 C   0  0  0  0  0  0  0  0  0  0  0  0
  -22.3461   -7.2987   32.3473 C   0  0  0  0  0  0  0  0  0  0  0  0
  1  4  1  6
  1  5  2  0
  1  8  2  0
  1 10  1  0
  3  2  1  0
  6  3  2  0
 12  3  1  0
 17  4  1  1
  9  6  1  0
  6 16  1  0
 18  7  2  0
  7 19  1  0
 10  9  2  0
  9 13  1  0
 10 11  1  0
 11 12  2  0
 13 14  2  0
 14 15  1  0
 16 15  2  0
 17 18  1  0
 18 22  1  0
 19 20  2  0
 20 21  1  0
 21 22  2  0
M  END
$$$$
