
     RDKit          3D

 22 24  0  0  0  0  0  0  0  0999 V2000
  -21.7225   -3.9916   31.1503 S   0  0  1  0  0  6  0  0  0  0  0  0
  -25.9138   -3.7035   35.9671 Br  0  0  0  0  0  0  0  0  0  0  0  0
  -24.7016   -3.8322   34.5248 C   0  0  0  0  0  0  0  0  0  0  0  0
  -20.6857   -5.3692   31.1875 N   0  0  0  0  0  0  0  0  0  0  0  0
  -20.9241   -2.7141   31.0923 O   0  0  0  0  0  0  0  0  0  0  0  0
  -25.0274   -4.3949   33.3022 C   0  0  0  0  0  0  0  0  0  0  0  0
  -23.0681   -7.2672   29.5099 N   0  0  0  0  0  0  0  0  0  0  0  0
  -22.4583   -4.0531   29.8403 O   0  0  0  0  0  0  0  0  0  0  0  0
  -24.1454   -4.4929   32.2394 C   0  0  0  0  0  0  0  0  0  0  0  0
  -22.8737   -3.9926   32.4336 C   0  0  0  0  0  0  0  0  0  0  0  0
  -22.4960   -3.4197   33.6411 C   0  0  0  0  0  0  0  0  0  0  0  0
  -23.4099   -3.3496   34.6591 C   0  0  0  0  0  0  0  0  0  0  0  0
  -24.4918   -5.0721   31.0431 C   0  0  0  0  0  0  0  0  0  0  0  0
  -25.7756   -5.5682   30.9114 C   0  0  0  0  0  0  0  0  0  0  0  0
  -26.6769   -5.4818   31.9547 C   0  0  0  0  0  0  0  0  0  0  0  0
  -26.3150   -4.8994   33.1507 C   0  0  0  0  0  0  0  0  0  0  0  0
  -21.4962   -6.6013   31.2923 C   0  0  0  0  0  0  0  0  0  0  0  0
  -21.8016   -7.1259   29.9397 C   0  0  0  0  0  0  0  0  0  0  0  0
  -23.3973   -7.7357   28.2990 C   0  0  0  0  0  0  0  0  0  0  0  0
  -22.3992   -8.1025   27.4205 C   0  0  0  0  0  0  0  0  0  0  0  0
  -21.0769   -7.9854   27.7919 C   0  0  0  0  0  0  0  0  0  0  0  0
  -20.7950   -7.4964   29.0522 C   0  0  0  0  0  0  0  0  0  0  0  0
  1  4  1  1
  1  5  2  0
  1  8  2  0
  1 10  1  0
  3  2  1  0
  6  3  2  0
 12  3  1  0
 17  4  1  1
  9  6  1  0
  6 16  1  0
 18  7  2  0
  7 19  1  0
 10  9  2  0
  9 13  1  0
 10 11  1  0
 11 12  2  0
 13 14  2  0
 14 15  1  0
 16 15  2  0
 17 18  1  0
 18 22  1  0
 19 20  2  0
 20 21  1  0
 21 22  2  0
M  END
$$$$
