
     RDKit          3D

 22 24  0  0  0  0  0  0  0  0999 V2000
  -22.6877   -6.0185   33.7160 S   0  0  1  0  0  6  0  0  0  0  0  0
  -25.8110   -0.4174   33.8852 Br  0  0  0  0  0  0  0  0  0  0  0  0
  -24.8792   -2.0802   33.8288 C   0  0  0  0  0  0  0  0  0  0  0  0
  -21.0204   -5.8927   33.5123 N   0  0  0  0  0  0  0  0  0  0  0  0
  -23.3423   -6.9536   32.7350 O   0  0  0  0  0  0  0  0  0  0  0  0
  -25.0611   -2.9410   32.7501 C   0  0  0  0  0  0  0  0  0  0  0  0
  -21.0307   -4.6343   30.1296 N   0  0  0  0  0  0  0  0  0  0  0  0
  -22.9364   -6.6225   35.0951 O   0  0  0  0  0  0  0  0  0  0  0  0
  -24.3959   -4.1535   32.6867 C   0  0  0  0  0  0  0  0  0  0  0  0
  -23.5462   -4.4974   33.7141 C   0  0  0  0  0  0  0  0  0  0  0  0
  -23.3854   -3.6243   34.7699 C   0  0  0  0  0  0  0  0  0  0  0  0
  -24.0311   -2.4122   34.8635 C   0  0  0  0  0  0  0  0  0  0  0  0
  -24.5990   -4.9839   31.5919 C   0  0  0  0  0  0  0  0  0  0  0  0
  -25.4432   -4.6565   30.5500 C   0  0  0  0  0  0  0  0  0  0  0  0
  -26.0949   -3.4441   30.6362 C   0  0  0  0  0  0  0  0  0  0  0  0
  -25.9120   -2.5980   31.7123 C   0  0  0  0  0  0  0  0  0  0  0  0
  -20.5461   -4.9664   32.5527 C   0  0  0  0  0  0  0  0  0  0  0  0
  -20.6884   -5.4334   31.1535 C   0  0  0  0  0  0  0  0  0  0  0  0
  -21.1509   -5.0982   28.8633 C   0  0  0  0  0  0  0  0  0  0  0  0
  -20.9270   -6.4224   28.5569 C   0  0  0  0  0  0  0  0  0  0  0  0
  -20.5719   -7.2778   29.5868 C   0  0  0  0  0  0  0  0  0  0  0  0
  -20.4579   -6.7704   30.8701 C   0  0  0  0  0  0  0  0  0  0  0  0
  1  4  1  6
  1  5  2  0
  1  8  2  0
  1 10  1  0
  3  2  1  0
  6  3  2  0
 12  3  1  0
 17  4  1  0
  9  6  1  0
  6 16  1  0
 18  7  2  0
  7 19  1  0
 10  9  2  0
  9 13  1  0
 10 11  1  0
 11 12  2  0
 13 14  2  0
 14 15  1  0
 16 15  2  0
 17 18  1  0
 18 22  1  0
 19 20  2  0
 20 21  1  0
 21 22  2  0
M  END
$$$$
