
     RDKit          3D

 22 24  0  0  0  0  0  0  0  0999 V2000
  -21.7415   -5.4747   34.3101 S   0  0  1  0  0  6  0  0  0  0  0  0
  -27.6878   -4.6496   32.1163 Br  0  0  0  0  0  0  0  0  0  0  0  0
  -25.9206   -4.8411   32.7540 C   0  0  0  0  0  0  0  0  0  0  0  0
  -20.4932   -4.9833   33.2265 N   0  0  0  0  0  0  0  0  0  0  0  0
  -21.5491   -6.9052   34.7451 O   0  0  0  0  0  0  0  0  0  0  0  0
  -25.1873   -3.7982   33.2945 C   0  0  0  0  0  0  0  0  0  0  0  0
  -20.2776   -5.6319   29.6692 N   0  0  0  0  0  0  0  0  0  0  0  0
  -21.5606   -4.6579   35.5597 O   0  0  0  0  0  0  0  0  0  0  0  0
  -23.8917   -3.9297   33.7648 C   0  0  0  0  0  0  0  0  0  0  0  0
  -23.3197   -5.1829   33.6805 C   0  0  0  0  0  0  0  0  0  0  0  0
  -24.0117   -6.2618   33.1456 C   0  0  0  0  0  0  0  0  0  0  0  0
  -25.2915   -6.0740   32.6947 C   0  0  0  0  0  0  0  0  0  0  0  0
  -23.1823   -2.8726   34.2805 C   0  0  0  0  0  0  0  0  0  0  0  0
  -23.8024   -1.6377   34.3271 C   0  0  0  0  0  0  0  0  0  0  0  0
  -25.0949   -1.4783   33.8668 C   0  0  0  0  0  0  0  0  0  0  0  0
  -25.7946   -2.5478   33.3499 C   0  0  0  0  0  0  0  0  0  0  0  0
  -20.3880   -5.9514   32.1141 C   0  0  0  0  0  0  0  0  0  0  0  0
  -20.8441   -5.3254   30.8499 C   0  0  0  0  0  0  0  0  0  0  0  0
  -20.6520   -5.0956   28.5004 C   0  0  0  0  0  0  0  0  0  0  0  0
  -21.6761   -4.1719   28.4763 C   0  0  0  0  0  0  0  0  0  0  0  0
  -22.3042   -3.8085   29.6483 C   0  0  0  0  0  0  0  0  0  0  0  0
  -21.8776   -4.3930   30.8244 C   0  0  0  0  0  0  0  0  0  0  0  0
  1  4  1  6
  1  5  2  0
  1  8  2  0
  1 10  1  0
  3  2  1  0
  6  3  2  0
 12  3  1  0
 17  4  1  1
  9  6  1  0
  6 16  1  0
 18  7  2  0
  7 19  1  0
 10  9  2  0
  9 13  1  0
 10 11  1  0
 11 12  2  0
 13 14  2  0
 14 15  1  0
 16 15  2  0
 17 18  1  0
 18 22  1  0
 19 20  2  0
 20 21  1  0
 21 22  2  0
M  END
$$$$
