
     RDKit          3D

 22 24  0  0  0  0  0  0  0  0999 V2000
  -21.8175   -5.8167   33.3075 S   0  0  1  0  0  6  0  0  0  0  0  0
  -25.5859   -1.0235   35.2248 Br  0  0  0  0  0  0  0  0  0  0  0  0
  -24.5147   -2.4736   34.6626 C   0  0  0  0  0  0  0  0  0  0  0  0
  -20.7263   -5.2612   32.0930 N   0  0  0  0  0  0  0  0  0  0  0  0
  -22.5496   -7.0537   32.8531 O   0  0  0  0  0  0  0  0  0  0  0  0
  -25.0195   -3.5901   34.0175 C   0  0  0  0  0  0  0  0  0  0  0  0
  -21.5018   -6.4843   29.7653 N   0  0  0  0  0  0  0  0  0  0  0  0
  -20.9677   -6.2673   34.4635 O   0  0  0  0  0  0  0  0  0  0  0  0
  -24.2417   -4.6573   33.6015 C   0  0  0  0  0  0  0  0  0  0  0  0
  -22.8870   -4.5802   33.8544 C   0  0  0  0  0  0  0  0  0  0  0  0
  -22.3307   -3.4831   34.4994 C   0  0  0  0  0  0  0  0  0  0  0  0
  -23.1481   -2.4556   34.8897 C   0  0  0  0  0  0  0  0  0  0  0  0
  -24.7732   -5.7601   32.9787 C   0  0  0  0  0  0  0  0  0  0  0  0
  -26.1388   -5.7875   32.7642 C   0  0  0  0  0  0  0  0  0  0  0  0
  -26.9385   -4.7357   33.1670 C   0  0  0  0  0  0  0  0  0  0  0  0
  -26.3917   -3.6356   33.7927 C   0  0  0  0  0  0  0  0  0  0  0  0
  -21.4515   -4.4200   31.1173 C   0  0  0  0  0  0  0  0  0  0  0  0
  -21.9991   -5.2624   30.0271 C   0  0  0  0  0  0  0  0  0  0  0  0
  -21.9600   -7.2839   28.7934 C   0  0  0  0  0  0  0  0  0  0  0  0
  -23.0026   -6.8549   27.9987 C   0  0  0  0  0  0  0  0  0  0  0  0
  -23.5632   -5.6131   28.2084 C   0  0  0  0  0  0  0  0  0  0  0  0
  -23.0514   -4.8304   29.2244 C   0  0  0  0  0  0  0  0  0  0  0  0
  1  4  1  6
  1  5  2  0
  1  8  2  0
  1 10  1  0
  3  2  1  0
  6  3  2  0
 12  3  1  0
 17  4  1  1
  9  6  1  0
  6 16  1  0
 18  7  2  0
  7 19  1  0
 10  9  2  0
  9 13  1  0
 10 11  1  0
 11 12  2  0
 13 14  2  0
 14 15  1  0
 16 15  2  0
 17 18  1  0
 18 22  1  0
 19 20  2  0
 20 21  1  0
 21 22  2  0
M  END
$$$$
