
     RDKit          3D

 22 24  0  0  0  0  0  0  0  0999 V2000
  -22.2389   -5.3606   33.7523 S   0  0  1  0  0  6  0  0  0  0  0  0
  -24.6334   -4.8110   27.8260 Br  0  0  0  0  0  0  0  0  0  0  0  0
  -23.9248   -4.9809   29.5882 C   0  0  0  0  0  0  0  0  0  0  0  0
  -21.5662   -3.9385   34.3541 N   0  0  0  0  0  0  0  0  0  0  0  0
  -21.2921   -6.5303   33.7808 O   0  0  0  0  0  0  0  0  0  0  0  0
  -24.7875   -5.0876   30.6755 C   0  0  0  0  0  0  0  0  0  0  0  0
  -23.8421   -2.6862   35.4701 N   0  0  0  0  0  0  0  0  0  0  0  0
  -23.3983   -5.7423   34.6681 O   0  0  0  0  0  0  0  0  0  0  0  0
  -24.2970   -5.2118   31.9640 C   0  0  0  0  0  0  0  0  0  0  0  0
  -22.9335   -5.2279   32.1552 C   0  0  0  0  0  0  0  0  0  0  0  0
  -22.1030   -5.1207   31.0590 C   0  0  0  0  0  0  0  0  0  0  0  0
  -22.5578   -4.9962   29.7657 C   0  0  0  0  0  0  0  0  0  0  0  0
  -25.1889   -5.3209   33.0233 C   0  0  0  0  0  0  0  0  0  0  0  0
  -26.5587   -5.3107   32.8531 C   0  0  0  0  0  0  0  0  0  0  0  0
  -27.0230   -5.1854   31.5606 C   0  0  0  0  0  0  0  0  0  0  0  0
  -26.1598   -5.0756   30.4880 C   0  0  0  0  0  0  0  0  0  0  0  0
  -22.0025   -2.7169   33.7874 C   0  0  0  0  0  0  0  0  0  0  0  0
  -23.2982   -2.2401   34.3259 C   0  0  0  0  0  0  0  0  0  0  0  0
  -25.0293   -2.2260   35.9303 C   0  0  0  0  0  0  0  0  0  0  0  0
  -25.7461   -1.2701   35.2448 C   0  0  0  0  0  0  0  0  0  0  0  0
  -25.2173   -0.7854   34.0599 C   0  0  0  0  0  0  0  0  0  0  0  0
  -24.0010   -1.2778   33.6180 C   0  0  0  0  0  0  0  0  0  0  0  0
  1  4  1  1
  1  5  2  0
  1  8  2  0
  1 10  1  0
  3  2  1  0
  6  3  2  0
 12  3  1  0
 17  4  1  0
  9  6  1  0
  6 16  1  0
 18  7  2  0
  7 19  1  0
 10  9  2  0
  9 13  1  0
 10 11  1  0
 11 12  2  0
 13 14  2  0
 14 15  1  0
 16 15  2  0
 17 18  1  0
 18 22  1  0
 19 20  2  0
 20 21  1  0
 21 22  2  0
M  END
$$$$
