
     RDKit          3D

 22 24  0  0  0  0  0  0  0  0999 V2000
  -21.8592   -3.7332   30.9847 S   0  0  1  0  0  6  0  0  0  0  0  0
  -27.4489   -4.8633   33.8708 Br  0  0  0  0  0  0  0  0  0  0  0  0
  -25.7894   -4.4875   33.0517 C   0  0  0  0  0  0  0  0  0  0  0  0
  -20.6715   -4.8924   31.4534 N   0  0  0  0  0  0  0  0  0  0  0  0
  -21.3323   -2.3283   31.1307 O   0  0  0  0  0  0  0  0  0  0  0  0
  -24.7384   -3.8675   33.7064 C   0  0  0  0  0  0  0  0  0  0  0  0
  -22.9820   -7.2739   30.1628 N   0  0  0  0  0  0  0  0  0  0  0  0
  -22.0709   -3.9202   29.5076 O   0  0  0  0  0  0  0  0  0  0  0  0
  -23.5185   -3.5886   33.1139 C   0  0  0  0  0  0  0  0  0  0  0  0
  -23.3644   -3.9610   31.7939 C   0  0  0  0  0  0  0  0  0  0  0  0
  -24.3878   -4.5843   31.0917 C   0  0  0  0  0  0  0  0  0  0  0  0
  -25.5746   -4.8353   31.7280 C   0  0  0  0  0  0  0  0  0  0  0  0
  -22.4994   -2.9566   33.7838 C   0  0  0  0  0  0  0  0  0  0  0  0
  -22.7163   -2.5948   35.1005 C   0  0  0  0  0  0  0  0  0  0  0  0
  -23.9230   -2.8626   35.7172 C   0  0  0  0  0  0  0  0  0  0  0  0
  -24.9379   -3.4961   35.0321 C   0  0  0  0  0  0  0  0  0  0  0  0
  -21.3083   -6.2142   31.6350 C   0  0  0  0  0  0  0  0  0  0  0  0
  -21.7550   -6.7478   30.3259 C   0  0  0  0  0  0  0  0  0  0  0  0
  -23.4337   -7.7686   29.0029 C   0  0  0  0  0  0  0  0  0  0  0  0
  -22.6137   -7.7505   27.8939 C   0  0  0  0  0  0  0  0  0  0  0  0
  -21.3420   -7.2266   27.9855 C   0  0  0  0  0  0  0  0  0  0  0  0
  -20.9283   -6.7301   29.2059 C   0  0  0  0  0  0  0  0  0  0  0  0
  1  4  1  1
  1  5  2  0
  1  8  2  0
  1 10  1  0
  3  2  1  0
  6  3  2  0
 12  3  1  0
 17  4  1  1
  9  6  1  0
  6 16  1  0
 18  7  2  0
  7 19  1  0
 10  9  2  0
  9 13  1  0
 10 11  1  0
 11 12  2  0
 13 14  2  0
 14 15  1  0
 16 15  2  0
 17 18  1  0
 18 22  1  0
 19 20  2  0
 20 21  1  0
 21 22  2  0
M  END
$$$$
