
     RDKit          3D

 45 45  0  0  0  0  0  0  0  0999 V2000
  -16.4974    7.9244    9.4227 C   0  0  0  0  0  0  0  0  0  0  0  0
  -16.9360    6.8812    8.8701 O   0  0  0  0  0  0  0  0  0  0  0  0
  -15.1000    7.8840    9.9273 C   0  0  0  0  0  0  0  0  0  0  0  0
  -17.2612    9.1135    9.5815 N   0  0  0  0  0  0  0  0  0  0  0  0
  -18.6266    9.1515    9.1442 C   0  0  2  0  0  0  0  0  0  0  0  0
  -18.6860    9.9100    7.8659 C   0  0  0  0  0  0  0  0  0  0  0  0
  -17.9823   10.9545    7.7172 O   0  0  0  0  0  0  0  0  0  0  0  0
  -19.4893    9.9070   10.1330 C   0  0  0  0  0  0  0  0  0  0  0  0
  -19.6157    9.1339   11.4394 C   0  0  0  0  0  0  0  0  0  0  0  0
  -21.0717    9.1901   11.8398 C   0  0  0  0  0  0  0  0  0  0  0  0
  -21.5143   10.5586   12.0344 N   0  0  0  0  0  0  0  0  0  0  0  0
  -22.3034   10.8698   13.1764 C   0  0  0  0  0  0  0  0  0  0  0  0
  -22.7275    9.8151   14.0495 N   0  0  0  0  0  0  0  0  0  0  0  0
  -22.6494   12.0807   13.4470 N   0  0  0  0  0  0  0  0  0  0  0  0
  -19.4960    9.5498    6.7570 N   0  0  0  0  0  0  0  0  0  0  0  0
  -19.6976   10.4797    5.6271 C   0  0  2  0  0  0  0  0  0  0  0  0
  -21.1037   10.8589    5.5508 C   0  0  0  0  0  0  0  0  0  0  0  0
  -21.9394   10.1291    6.1793 O   0  0  0  0  0  0  0  0  0  0  0  0
  -19.1586    9.8203    4.3906 C   0  0  0  0  0  0  0  0  0  0  0  0
  -17.6944    9.6586    4.4625 C   0  0  0  0  0  0  0  0  0  0  0  0
  -17.1505    8.5052    4.9652 C   0  0  0  0  0  0  0  0  0  0  0  0
  -16.8003   10.6453    4.0377 C   0  0  0  0  0  0  0  0  0  0  0  0
  -15.7708    8.3325    5.0442 C   0  0  0  0  0  0  0  0  0  0  0  0
  -15.4450   10.4753    4.1156 C   0  0  0  0  0  0  0  0  0  0  0  0
  -14.9023    9.3272    4.6150 C   0  0  0  0  0  0  0  0  0  0  0  0
  -13.5157    9.1525    4.6957 O   0  0  0  0  0  0  0  0  0  0  0  0
  -21.6828   11.9449    4.8619 N   0  0  0  0  0  0  0  0  0  0  0  0
  -23.0630   12.3208    4.9802 C   0  0  2  0  0  0  0  0  0  0  0  0
  -23.9078   12.0383    3.8154 C   0  0  0  0  0  0  0  0  0  0  0  0
  -25.1398   12.1666    3.7314 O   0  0  0  0  0  0  0  0  0  0  0  0
  -23.0634   13.8608    5.1461 C   0  0  0  0  0  0  0  0  0  0  0  0
  -24.3224   14.3888    5.2259 O   0  0  0  0  0  0  0  0  0  0  0  0
  -23.2105   11.5584    2.6458 N   0  0  0  0  0  0  0  0  0  0  0  0
  -23.9574   11.3290    1.4032 C   0  0  2  0  0  0  0  0  0  0  0  0
  -24.2118    9.8966    1.2671 C   0  0  0  0  0  0  0  0  0  0  0  0
  -23.3081    9.1518    0.9374 O   0  0  0  0  0  0  0  0  0  0  0  0
  -23.0801   11.9161    0.3086 C   0  0  0  0  0  0  0  0  0  0  0  0
  -21.8792   12.6330    0.8288 C   0  0  0  0  0  0  0  0  0  0  0  0
  -20.6766   12.5143   -0.0620 C   0  0  0  0  0  0  0  0  0  0  0  0
  -20.4011   11.1852   -0.4932 N   0  0  0  0  0  0  0  0  0  0  0  0
  -19.3431   10.8436   -1.3655 C   0  0  0  0  0  0  0  0  0  0  0  0
  -19.0504    9.4842   -1.5980 N   0  0  0  0  0  0  0  0  0  0  0  0
  -18.6428   11.7428   -1.9447 N   0  0  0  0  0  0  0  0  0  0  0  0
  -22.3180   12.9223   12.9481 H   0  0  0  0  0  0  0  0  0  0  0  0
  -18.6806   12.7461   -1.7391 H   0  0  0  0  0  0  0  0  0  0  0  0
  1  2  2  0
  3  1  1  6
  1  4  1  0
  5  4  1  1
  5  6  1  0
  8  5  1  1
  6  7  2  0
  6 15  1  0
  8  9  1  0
  9 10  1  6
 10 11  1  6
 11 12  1  0
 12 13  1  0
 12 14  2  0
 16 15  1  1
 16 17  1  0
 16 19  1  0
 17 18  2  0
 17 27  1  0
 19 20  1  6
 20 21  2  0
 20 22  1  0
 21 23  1  0
 22 24  2  0
 23 25  2  0
 24 25  1  0
 25 26  1  0
 28 27  1  6
 28 29  1  0
 28 31  1  0
 29 30  2  0
 29 33  1  0
 31 32  1  6
 34 33  1  1
 34 35  1  0
 37 34  1  1
 35 36  2  0
 37 38  1  0
 38 39  1  6
 39 40  1  6
 40 41  1  0
 41 42  1  0
 41 43  2  0
 14 44  1  0
 43 45  1  0
M  END
$$$$
