
     RDKit          3D

 45 45  0  0  0  0  0  0  0  0999 V2000
  -17.9446    8.3099    2.1905 C   0  0  0  0  0  0  0  0  0  0  0  0
  -17.2032    7.8871    1.3073 O   0  0  0  0  0  0  0  0  0  0  0  0
  -19.4173    7.9693    2.1200 C   0  0  0  0  0  0  0  0  0  0  0  0
  -17.5544    9.1042    3.2966 N   0  0  0  0  0  0  0  0  0  0  0  0
  -18.4855    9.5502    4.2807 C   0  0  2  0  0  0  0  0  0  0  0  0
  -19.6327   10.2136    3.6508 C   0  0  0  0  0  0  0  0  0  0  0  0
  -19.7502   10.2744    2.3726 O   0  0  0  0  0  0  0  0  0  0  0  0
  -17.8612   10.3016    5.3877 C   0  0  0  0  0  0  0  0  0  0  0  0
  -16.3903   10.4593    5.2579 C   0  0  0  0  0  0  0  0  0  0  0  0
  -15.5027    9.3126    5.5469 C   0  0  0  0  0  0  0  0  0  0  0  0
  -15.9880    8.5621    6.7224 N   0  0  0  0  0  0  0  0  0  0  0  0
  -15.1454    8.4662    7.8499 C   0  0  0  0  0  0  0  0  0  0  0  0
  -13.8433    9.0181    7.7882 N   0  0  0  0  0  0  0  0  0  0  0  0
  -15.5604    7.8720    8.9429 N   0  0  0  0  0  0  0  0  0  0  0  0
  -20.6614   10.8225    4.4145 N   0  0  0  0  0  0  0  0  0  0  0  0
  -21.9604   11.0965    3.8291 C   0  0  2  0  0  0  0  0  0  0  0  0
  -22.9147   11.6348    4.8706 C   0  0  0  0  0  0  0  0  0  0  0  0
  -24.0070   12.1484    4.6253 O   0  0  0  0  0  0  0  0  0  0  0  0
  -22.5722    9.8685    3.2745 C   0  0  0  0  0  0  0  0  0  0  0  0
  -22.4506    9.6227    1.8480 C   0  0  0  0  0  0  0  0  0  0  0  0
  -22.6727   10.6026    0.9280 C   0  0  0  0  0  0  0  0  0  0  0  0
  -22.1208    8.3557    1.3934 C   0  0  0  0  0  0  0  0  0  0  0  0
  -22.5733   10.3499   -0.4376 C   0  0  0  0  0  0  0  0  0  0  0  0
  -22.0182    8.0911    0.0273 C   0  0  0  0  0  0  0  0  0  0  0  0
  -22.2415    9.0769   -0.9053 C   0  0  0  0  0  0  0  0  0  0  0  0
  -22.1506    8.8497   -2.2702 O   0  0  0  0  0  0  0  0  0  0  0  0
  -22.4926   11.5247    6.2338 N   0  0  0  0  0  0  0  0  0  0  0  0
  -23.0276   12.2994    7.3195 C   0  0  2  0  0  0  0  0  0  0  0  0
  -21.9896   13.0888    8.0155 C   0  0  0  0  0  0  0  0  0  0  0  0
  -22.3242   13.6175    9.1315 O   0  0  0  0  0  0  0  0  0  0  0  0
  -23.7320   11.3730    8.3297 C   0  0  0  0  0  0  0  0  0  0  0  0
  -22.9899   10.2191    8.4125 O   0  0  0  0  0  0  0  0  0  0  0  0
  -20.6789   13.3198    7.5752 N   0  0  0  0  0  0  0  0  0  0  0  0
  -19.5724   13.7013    8.4613 C   0  0  2  0  0  0  0  0  0  0  0  0
  -18.3464   13.8003    7.6844 C   0  0  0  0  0  0  0  0  0  0  0  0
  -17.6345   14.7663    7.5615 O   0  0  0  0  0  0  0  0  0  0  0  0
  -19.5144   12.9033    9.7139 C   0  0  0  0  0  0  0  0  0  0  0  0
  -18.1430   12.9169   10.3285 C   0  0  0  0  0  0  0  0  0  0  0  0
  -18.1802   12.8390   11.8366 C   0  0  0  0  0  0  0  0  0  0  0  0
  -19.4350   12.2709   12.2848 N   0  0  0  0  0  0  0  0  0  0  0  0
  -19.7760   12.2326   13.6626 C   0  0  0  0  0  0  0  0  0  0  0  0
  -18.8827   12.8492   14.6156 N   0  0  0  0  0  0  0  0  0  0  0  0
  -20.8470   11.6712   14.0772 N   0  0  0  0  0  0  0  0  0  0  0  0
  -16.2849    7.1399    8.8353 H   0  0  0  0  0  0  0  0  0  0  0  0
  -21.5203   11.2763   13.4035 H   0  0  0  0  0  0  0  0  0  0  0  0
  1  2  2  0
  1  3  1  0
  1  4  1  0
  4  5  1  0
  5  6  1  0
  5  8  1  1
  6  7  2  0
  6 15  1  0
  8  9  1  0
  9 10  1  0
 10 11  1  0
 11 12  1  0
 12 13  1  0
 12 14  2  0
 15 16  1  0
 16 17  1  0
 16 19  1  1
 17 18  2  0
 17 27  1  0
 19 20  1  0
 20 21  2  0
 20 22  1  0
 21 23  1  0
 22 24  2  0
 23 25  2  0
 24 25  1  0
 25 26  1  0
 27 28  1  0
 28 29  1  0
 28 31  1  1
 29 30  2  0
 29 33  1  0
 31 32  1  0
 33 34  1  0
 34 35  1  0
 34 37  1  1
 35 36  2  0
 37 38  1  0
 38 39  1  0
 39 40  1  0
 40 41  1  0
 41 42  1  0
 41 43  2  0
 14 44  1  0
 43 45  1  0
M  END
$$$$
