
     RDKit          3D

 45 45  0  0  0  0  0  0  0  0999 V2000
  -18.9602    7.3635    8.6452 C   0  0  0  0  0  0  0  0  0  0  0  0
  -19.1916    7.0692    9.8150 O   0  0  0  0  0  0  0  0  0  0  0  0
  -17.6032    7.0204    8.0701 C   0  0  0  0  0  0  0  0  0  0  0  0
  -19.8546    8.0080    7.7555 N   0  0  0  0  0  0  0  0  0  0  0  0
  -19.4755    8.3826    6.4325 C   0  0  2  0  0  0  0  0  0  0  0  0
  -18.4850    9.4649    6.4602 C   0  0  0  0  0  0  0  0  0  0  0  0
  -18.0072    9.9049    7.5690 O   0  0  0  0  0  0  0  0  0  0  0  0
  -20.6223    8.6099    5.5310 C   0  0  0  0  0  0  0  0  0  0  0  0
  -20.5845    7.7986    4.2876 C   0  0  0  0  0  0  0  0  0  0  0  0
  -21.5285    8.0974    3.1894 C   0  0  0  0  0  0  0  0  0  0  0  0
  -20.8146    8.6709    2.0310 N   0  0  0  0  0  0  0  0  0  0  0  0
  -21.4359    9.7128    1.3109 C   0  0  0  0  0  0  0  0  0  0  0  0
  -20.6617   10.8229    0.8956 N   0  0  0  0  0  0  0  0  0  0  0  0
  -22.7156    9.6571    1.0295 N   0  0  0  0  0  0  0  0  0  0  0  0
  -18.0110   10.0806    5.2735 N   0  0  0  0  0  0  0  0  0  0  0  0
  -17.0140   11.1332    5.3281 C   0  0  2  0  0  0  0  0  0  0  0  0
  -17.4505   12.3276    4.5109 C   0  0  0  0  0  0  0  0  0  0  0  0
  -16.8802   13.4193    4.5005 O   0  0  0  0  0  0  0  0  0  0  0  0
  -15.7190   10.6791    4.7741 C   0  0  0  0  0  0  0  0  0  0  0  0
  -14.6316   11.6385    4.6910 C   0  0  0  0  0  0  0  0  0  0  0  0
  -13.8474   11.9314    5.7657 C   0  0  0  0  0  0  0  0  0  0  0  0
  -14.3856   12.2986    3.4974 C   0  0  0  0  0  0  0  0  0  0  0  0
  -12.8209   12.8682    5.6795 C   0  0  0  0  0  0  0  0  0  0  0  0
  -13.3596   13.2390    3.3994 C   0  0  0  0  0  0  0  0  0  0  0  0
  -12.5652   13.5382    4.4815 C   0  0  0  0  0  0  0  0  0  0  0  0
  -11.5385   14.4684    4.4214 O   0  0  0  0  0  0  0  0  0  0  0  0
  -18.6141   12.1474    3.6972 N   0  0  0  0  0  0  0  0  0  0  0  0
  -19.2097   13.1727    2.8853 C   0  0  2  0  0  0  0  0  0  0  0  0
  -20.5640   13.5437    3.3471 C   0  0  0  0  0  0  0  0  0  0  0  0
  -21.3953   13.9121    2.4470 O   0  0  0  0  0  0  0  0  0  0  0  0
  -19.2767   12.7085    1.4172 C   0  0  0  0  0  0  0  0  0  0  0  0
  -18.1925   11.8931    1.1966 O   0  0  0  0  0  0  0  0  0  0  0  0
  -21.0278   13.5367    4.6700 N   0  0  0  0  0  0  0  0  0  0  0  0
  -22.4187   13.2598    5.0489 C   0  0  2  0  0  0  0  0  0  0  0  0
  -22.5955   13.5377    6.4659 C   0  0  0  0  0  0  0  0  0  0  0  0
  -21.8432   13.2559    7.3658 O   0  0  0  0  0  0  0  0  0  0  0  0
  -22.9194   11.9521    4.5506 C   0  0  0  0  0  0  0  0  0  0  0  0
  -24.2628   12.0775    3.8886 C   0  0  0  0  0  0  0  0  0  0  0  0
  -24.8069   10.7487    3.4194 C   0  0  0  0  0  0  0  0  0  0  0  0
  -24.8635    9.8067    4.5184 N   0  0  0  0  0  0  0  0  0  0  0  0
  -25.6248   10.0807    5.6851 C   0  0  0  0  0  0  0  0  0  0  0  0
  -27.0385   10.3425    5.5454 N   0  0  0  0  0  0  0  0  0  0  0  0
  -25.0941   10.0999    6.8479 N   0  0  0  0  0  0  0  0  0  0  0  0
  -23.3278    9.1760    1.7123 H   0  0  0  0  0  0  0  0  0  0  0  0
  -24.6521   10.9611    7.2027 H   0  0  0  0  0  0  0  0  0  0  0  0
  1  2  2  0
  1  3  1  0
  1  4  1  0
  4  5  1  0
  5  6  1  0
  5  8  1  6
  6  7  2  0
  6 15  1  0
  8  9  1  0
  9 10  1  0
 10 11  1  0
 11 12  1  0
 12 13  1  0
 12 14  2  0
 15 16  1  0
 16 17  1  0
 16 19  1  6
 17 18  2  0
 17 27  1  0
 19 20  1  0
 20 21  2  0
 20 22  1  0
 21 23  1  0
 22 24  2  0
 23 25  2  0
 24 25  1  0
 25 26  1  0
 27 28  1  0
 28 29  1  0
 28 31  1  6
 29 30  2  0
 29 33  1  0
 31 32  1  0
 33 34  1  0
 34 35  1  0
 34 37  1  1
 35 36  2  0
 37 38  1  0
 38 39  1  0
 39 40  1  0
 40 41  1  0
 41 42  1  0
 41 43  2  0
 14 44  1  0
 43 45  1  0
M  END
$$$$
