
     RDKit          3D

 45 45  0  0  0  0  0  0  0  0999 V2000
  -14.3308    8.4525    9.5889 C   0  0  0  0  0  0  0  0  0  0  0  0
  -13.8704    8.3422    8.4557 O   0  0  0  0  0  0  0  0  0  0  0  0
  -13.4300    8.9785   10.6852 C   0  0  0  0  0  0  0  0  0  0  0  0
  -15.6515    8.1297    9.9870 N   0  0  0  0  0  0  0  0  0  0  0  0
  -16.6558    9.1251   10.1739 C   0  0  2  0  0  0  0  0  0  0  0  0
  -16.9351    9.8272    8.9161 C   0  0  0  0  0  0  0  0  0  0  0  0
  -16.9038   11.1100    8.8458 O   0  0  0  0  0  0  0  0  0  0  0  0
  -16.4101   10.0019   11.3361 C   0  0  0  0  0  0  0  0  0  0  0  0
  -17.2505    9.6876   12.5194 C   0  0  0  0  0  0  0  0  0  0  0  0
  -18.6617    9.2885   12.3300 C   0  0  0  0  0  0  0  0  0  0  0  0
  -18.7851    7.8177   12.2858 N   0  0  0  0  0  0  0  0  0  0  0  0
  -19.1354    7.1394   13.4722 C   0  0  0  0  0  0  0  0  0  0  0  0
  -19.2179    7.8656   14.6845 N   0  0  0  0  0  0  0  0  0  0  0  0
  -19.3805    5.8512   13.4553 N   0  0  0  0  0  0  0  0  0  0  0  0
  -17.2571    9.1317    7.7224 N   0  0  0  0  0  0  0  0  0  0  0  0
  -17.6167    9.8518    6.5153 C   0  0  2  0  0  0  0  0  0  0  0  0
  -19.1123    9.8198    6.2977 C   0  0  0  0  0  0  0  0  0  0  0  0
  -19.8219    8.8223    6.4340 O   0  0  0  0  0  0  0  0  0  0  0  0
  -16.9919    9.2451    5.3188 C   0  0  0  0  0  0  0  0  0  0  0  0
  -17.2464    9.8551    4.0253 C   0  0  0  0  0  0  0  0  0  0  0  0
  -18.3882    9.6064    3.3252 C   0  0  0  0  0  0  0  0  0  0  0  0
  -16.3013   10.6995    3.4645 C   0  0  0  0  0  0  0  0  0  0  0  0
  -18.6120   10.1808    2.0767 C   0  0  0  0  0  0  0  0  0  0  0  0
  -16.5150   11.2809    2.2142 C   0  0  0  0  0  0  0  0  0  0  0  0
  -17.6661   11.0329    1.5036 C   0  0  0  0  0  0  0  0  0  0  0  0
  -17.9111   11.5910    0.2580 O   0  0  0  0  0  0  0  0  0  0  0  0
  -19.7221   11.0543    5.9069 N   0  0  0  0  0  0  0  0  0  0  0  0
  -21.1226   11.2223    5.6317 C   0  0  2  0  0  0  0  0  0  0  0  0
  -21.3968   11.4114    4.1916 C   0  0  0  0  0  0  0  0  0  0  0  0
  -20.4802   11.9806    3.5039 O   0  0  0  0  0  0  0  0  0  0  0  0
  -21.6733   12.4253    6.4220 C   0  0  0  0  0  0  0  0  0  0  0  0
  -20.8187   13.4804    6.2082 O   0  0  0  0  0  0  0  0  0  0  0  0
  -22.5594   11.0346    3.5049 N   0  0  0  0  0  0  0  0  0  0  0  0
  -22.9351   11.5535    2.1841 C   0  0  2  0  0  0  0  0  0  0  0  0
  -22.3090   12.8509    1.9814 C   0  0  0  0  0  0  0  0  0  0  0  0
  -22.5704   13.8851    2.5446 O   0  0  0  0  0  0  0  0  0  0  0  0
  -24.3910   11.4558    1.9015 C   0  0  0  0  0  0  0  0  0  0  0  0
  -25.0833   10.4993    2.8313 C   0  0  0  0  0  0  0  0  0  0  0  0
  -25.9779    9.5241    2.1031 C   0  0  0  0  0  0  0  0  0  0  0  0
  -25.7197    9.5648    0.6784 N   0  0  0  0  0  0  0  0  0  0  0  0
  -26.4046    8.7040   -0.2193 C   0  0  0  0  0  0  0  0  0  0  0  0
  -25.8162    8.4394   -1.5117 N   0  0  0  0  0  0  0  0  0  0  0  0
  -27.5204    8.1602    0.0864 N   0  0  0  0  0  0  0  0  0  0  0  0
  -19.2729    5.3627   12.5485 H   0  0  0  0  0  0  0  0  0  0  0  0
  -27.6579    7.7479    1.0213 H   0  0  0  0  0  0  0  0  0  0  0  0
  1  2  2  0
  1  3  1  0
  1  4  1  0
  4  5  1  0
  5  6  1  0
  5  8  1  1
  6  7  2  0
  6 15  1  0
  8  9  1  0
  9 10  1  0
 10 11  1  0
 11 12  1  0
 12 13  1  0
 12 14  2  0
 15 16  1  0
 16 17  1  0
 16 19  1  6
 17 18  2  0
 17 27  1  0
 19 20  1  0
 20 21  2  0
 20 22  1  0
 21 23  1  0
 22 24  2  0
 23 25  2  0
 24 25  1  0
 25 26  1  0
 27 28  1  0
 28 29  1  0
 28 31  1  1
 29 30  2  0
 29 33  1  0
 31 32  1  0
 33 34  1  0
 34 35  1  0
 34 37  1  1
 35 36  2  0
 37 38  1  0
 38 39  1  0
 39 40  1  0
 40 41  1  0
 41 42  1  0
 41 43  2  0
 14 44  1  0
 43 45  1  0
M  END
$$$$
