
     RDKit          3D

 45 45  0  0  0  0  0  0  0  0999 V2000
  -24.3079  -20.5971   -6.4841 C   0  0  0  0  0  0  0  0  0  0  0  0
  -24.2285  -19.4245   -6.1274 O   0  0  0  0  0  0  0  0  0  0  0  0
  -23.3376  -21.0995   -7.5310 C   0  0  0  0  0  0  0  0  0  0  0  0
  -25.2376  -21.5526   -6.0055 N   0  0  0  0  0  0  0  0  0  0  0  0
  -25.0722  -22.2163   -4.7539 C   0  0  2  0  0  0  0  0  0  0  0  0
  -24.4922  -21.3107   -3.7556 C   0  0  0  0  0  0  0  0  0  0  0  0
  -23.2212  -21.1467   -3.6609 O   0  0  0  0  0  0  0  0  0  0  0  0
  -24.4076  -23.5300   -4.8646 C   0  0  0  0  0  0  0  0  0  0  0  0
  -25.2526  -24.6736   -4.4359 C   0  0  0  0  0  0  0  0  0  0  0  0
  -24.9380  -25.3855   -3.1787 C   0  0  0  0  0  0  0  0  0  0  0  0
  -25.9373  -26.4398   -2.9136 N   0  0  0  0  0  0  0  0  0  0  0  0
  -25.7972  -27.2159   -1.7439 C   0  0  0  0  0  0  0  0  0  0  0  0
  -24.7423  -26.9269   -0.8452 N   0  0  0  0  0  0  0  0  0  0  0  0
  -26.6319  -28.1952   -1.4904 N   0  0  0  0  0  0  0  0  0  0  0  0
  -25.2983  -20.5784   -2.8466 N   0  0  0  0  0  0  0  0  0  0  0  0
  -24.6985  -19.8117   -1.7708 C   0  0  2  0  0  0  0  0  0  0  0  0
  -25.4954  -19.9643   -0.4953 C   0  0  0  0  0  0  0  0  0  0  0  0
  -25.2292  -19.4087    0.5713 O   0  0  0  0  0  0  0  0  0  0  0  0
  -24.6656  -18.3673   -2.0908 C   0  0  0  0  0  0  0  0  0  0  0  0
  -23.6315  -17.5503   -1.4799 C   0  0  0  0  0  0  0  0  0  0  0  0
  -22.3438  -17.5696   -1.9241 C   0  0  0  0  0  0  0  0  0  0  0  0
  -23.9433  -16.7391   -0.4004 C   0  0  0  0  0  0  0  0  0  0  0  0
  -21.3567  -16.7976   -1.3172 C   0  0  0  0  0  0  0  0  0  0  0  0
  -22.9622  -15.9610    0.2153 C   0  0  0  0  0  0  0  0  0  0  0  0
  -21.6609  -15.9771   -0.2293 C   0  0  0  0  0  0  0  0  0  0  0  0
  -20.6599  -15.2192    0.3592 O   0  0  0  0  0  0  0  0  0  0  0  0
  -26.6392  -20.8221   -0.5617 N   0  0  0  0  0  0  0  0  0  0  0  0
  -27.8920  -20.5652    0.0939 C   0  0  2  0  0  0  0  0  0  0  0  0
  -27.7420  -20.4022    1.5553 C   0  0  0  0  0  0  0  0  0  0  0  0
  -26.7549  -21.0063    2.1008 O   0  0  0  0  0  0  0  0  0  0  0  0
  -28.8822  -21.7098   -0.1965 C   0  0  0  0  0  0  0  0  0  0  0  0
  -30.0823  -21.3680    0.3797 O   0  0  0  0  0  0  0  0  0  0  0  0
  -28.5731  -19.6571    2.4035 N   0  0  0  0  0  0  0  0  0  0  0  0
  -28.3228  -19.4694    3.8377 C   0  0  2  0  0  0  0  0  0  0  0  0
  -29.5029  -18.8890    4.4599 C   0  0  0  0  0  0  0  0  0  0  0  0
  -29.7522  -18.8262    5.6385 O   0  0  0  0  0  0  0  0  0  0  0  0
  -27.0179  -18.8214    4.1315 C   0  0  0  0  0  0  0  0  0  0  0  0
  -26.1483  -19.6766    5.0096 C   0  0  0  0  0  0  0  0  0  0  0  0
  -25.0648  -20.3913    4.2369 C   0  0  0  0  0  0  0  0  0  0  0  0
  -24.1284  -19.4388    3.6765 N   0  0  0  0  0  0  0  0  0  0  0  0
  -22.9485  -19.8683    3.0135 C   0  0  0  0  0  0  0  0  0  0  0  0
  -22.0176  -20.7093    3.7295 N   0  0  0  0  0  0  0  0  0  0  0  0
  -22.6926  -19.5328    1.8069 N   0  0  0  0  0  0  0  0  0  0  0  0
  -26.5329  -28.6746   -0.5778 H   0  0  0  0  0  0  0  0  0  0  0  0
  -23.2332  -18.7826    1.3509 H   0  0  0  0  0  0  0  0  0  0  0  0
  1  2  2  0
  1  3  1  0
  1  4  1  0
  4  5  1  0
  5  6  1  0
  5  8  1  6
  6  7  2  0
  6 15  1  0
  8  9  1  0
  9 10  1  0
 10 11  1  0
 11 12  1  0
 12 13  1  0
 12 14  2  0
 15 16  1  0
 16 17  1  0
 16 19  1  6
 17 18  2  0
 17 27  1  0
 19 20  1  0
 20 21  2  0
 20 22  1  0
 21 23  1  0
 22 24  2  0
 23 25  2  0
 24 25  1  0
 25 26  1  0
 27 28  1  0
 28 29  1  0
 28 31  1  1
 29 30  2  0
 29 33  1  0
 31 32  1  0
 33 34  1  0
 34 35  1  0
 34 37  1  6
 35 36  2  0
 37 38  1  0
 38 39  1  0
 39 40  1  0
 40 41  1  0
 41 42  1  0
 41 43  2  0
 14 44  1  0
 43 45  1  0
M  END
$$$$
