
     RDKit          3D

 45 45  0  0  0  0  0  0  0  0999 V2000
  -22.4119    9.7107   11.8794 C   0  0  0  0  0  0  0  0  0  0  0  0
  -22.8448   10.8525   11.7476 O   0  0  0  0  0  0  0  0  0  0  0  0
  -23.1364    8.7685   12.8161 C   0  0  0  0  0  0  0  0  0  0  0  0
  -21.2753    9.1701   11.2293 N   0  0  0  0  0  0  0  0  0  0  0  0
  -20.5132    9.9155   10.2817 C   0  0  2  0  0  0  0  0  0  0  0  0
  -20.8377    9.5036    8.9113 C   0  0  0  0  0  0  0  0  0  0  0  0
  -21.1288    8.2836    8.6316 O   0  0  0  0  0  0  0  0  0  0  0  0
  -19.0707    9.9667   10.5923 C   0  0  0  0  0  0  0  0  0  0  0  0
  -18.3593    8.6812   10.3759 C   0  0  0  0  0  0  0  0  0  0  0  0
  -16.9366    8.5581   10.7598 C   0  0  0  0  0  0  0  0  0  0  0  0
  -16.1347    9.6300   10.1365 N   0  0  0  0  0  0  0  0  0  0  0  0
  -15.3352   10.4391   10.9710 C   0  0  0  0  0  0  0  0  0  0  0  0
  -14.6933   11.5753   10.4224 N   0  0  0  0  0  0  0  0  0  0  0  0
  -15.1854   10.1436   12.2399 N   0  0  0  0  0  0  0  0  0  0  0  0
  -20.8418   10.4230    7.8310 N   0  0  0  0  0  0  0  0  0  0  0  0
  -21.1723    9.9900    6.4863 C   0  0  2  0  0  0  0  0  0  0  0  0
  -20.0680   10.3528    5.5199 C   0  0  0  0  0  0  0  0  0  0  0  0
  -19.4979   11.4439    5.4806 O   0  0  0  0  0  0  0  0  0  0  0  0
  -22.4074   10.6426    5.9976 C   0  0  0  0  0  0  0  0  0  0  0  0
  -22.8083   10.4132    4.6204 C   0  0  0  0  0  0  0  0  0  0  0  0
  -22.5778   11.3324    3.6417 C   0  0  0  0  0  0  0  0  0  0  0  0
  -23.4638    9.2404    4.2806 C   0  0  0  0  0  0  0  0  0  0  0  0
  -22.9853   11.1103    2.3290 C   0  0  0  0  0  0  0  0  0  0  0  0
  -23.8764    9.0071    2.9683 C   0  0  0  0  0  0  0  0  0  0  0  0
  -23.6460    9.9319    1.9768 C   0  0  0  0  0  0  0  0  0  0  0  0
  -24.0437    9.7348    0.6630 O   0  0  0  0  0  0  0  0  0  0  0  0
  -19.6752    9.3335    4.5951 N   0  0  0  0  0  0  0  0  0  0  0  0
  -18.6034    9.4606    3.6462 C   0  0  2  0  0  0  0  0  0  0  0  0
  -18.8391   10.5447    2.6694 C   0  0  0  0  0  0  0  0  0  0  0  0
  -17.9034   10.7695    1.8263 O   0  0  0  0  0  0  0  0  0  0  0  0
  -18.4033    8.1287    2.8973 C   0  0  0  0  0  0  0  0  0  0  0  0
  -18.5332    7.1178    3.8194 O   0  0  0  0  0  0  0  0  0  0  0  0
  -19.9807   11.3529    2.5761 N   0  0  0  0  0  0  0  0  0  0  0  0
  -20.4149   12.0178    1.3414 C   0  0  2  0  0  0  0  0  0  0  0  0
  -21.3943   13.0433    1.6664 C   0  0  0  0  0  0  0  0  0  0  0  0
  -22.5705   13.0424    1.3985 O   0  0  0  0  0  0  0  0  0  0  0  0
  -20.7664   11.0711    0.2509 C   0  0  0  0  0  0  0  0  0  0  0  0
  -21.1885   11.7854   -1.0021 C   0  0  0  0  0  0  0  0  0  0  0  0
  -20.0651   12.5791   -1.6263 C   0  0  0  0  0  0  0  0  0  0  0  0
  -19.3085   11.7525   -2.5442 N   0  0  0  0  0  0  0  0  0  0  0  0
  -18.2148   12.2799   -3.2803 C   0  0  0  0  0  0  0  0  0  0  0  0
  -17.8789   13.6755   -3.1194 N   0  0  0  0  0  0  0  0  0  0  0  0
  -17.5243   11.5549   -4.0751 N   0  0  0  0  0  0  0  0  0  0  0  0
  -16.0425   10.1090   12.8202 H   0  0  0  0  0  0  0  0  0  0  0  0
  -17.7403   10.5525   -4.1833 H   0  0  0  0  0  0  0  0  0  0  0  0
  1  2  2  0
  1  3  1  0
  1  4  1  0
  4  5  1  0
  5  6  1  0
  5  8  1  1
  6  7  2  0
  6 15  1  0
  8  9  1  0
  9 10  1  0
 10 11  1  0
 11 12  1  0
 12 13  1  0
 12 14  2  0
 15 16  1  0
 16 17  1  0
 16 19  1  6
 17 18  2  0
 17 27  1  0
 19 20  1  0
 20 21  2  0
 20 22  1  0
 21 23  1  0
 22 24  2  0
 23 25  2  0
 24 25  1  0
 25 26  1  0
 27 28  1  0
 28 29  1  0
 28 31  1  6
 29 30  2  0
 29 33  1  0
 31 32  1  0
 33 34  1  0
 34 35  1  0
 34 37  1  6
 35 36  2  0
 37 38  1  0
 38 39  1  0
 39 40  1  0
 40 41  1  0
 41 42  1  0
 41 43  2  0
 14 44  1  0
 43 45  1  0
M  END
$$$$
