
     RDKit          3D

 45 45  0  0  0  0  0  0  0  0999 V2000
  -13.7624    8.9333   10.6560 C   0  0  0  0  0  0  0  0  0  0  0  0
  -13.7126    8.3865    9.5225 O   0  0  0  0  0  0  0  0  0  0  0  0
  -12.5442    9.6519   11.1123 C   0  0  0  0  0  0  0  0  0  0  0  0
  -14.9064    8.8959   11.5000 N   0  0  0  0  0  0  0  0  0  0  0  0
  -16.2047    8.6630   10.9369 C   0  0  2  0  0  0  0  0  0  0  0  0
  -16.2533    9.3042    9.5955 C   0  0  0  0  0  0  0  0  0  0  0  0
  -15.9200   10.5208    9.4639 O   0  0  0  0  0  0  0  0  0  0  0  0
  -17.2813    9.3261   11.7699 C   0  0  0  0  0  0  0  0  0  0  0  0
  -18.6656    8.8810   11.3157 C   0  0  0  0  0  0  0  0  0  0  0  0
  -18.8620    7.4745   11.8316 C   0  0  0  0  0  0  0  0  0  0  0  0
  -19.1811    7.4701   13.2475 N   0  0  0  0  0  0  0  0  0  0  0  0
  -20.3723    8.1126   13.6855 C   0  0  0  0  0  0  0  0  0  0  0  0
  -20.2814    9.3207   14.4515 N   0  0  0  0  0  0  0  0  0  0  0  0
  -21.5363    7.6340   13.4113 N   0  0  0  0  0  0  0  0  0  0  0  0
  -16.6581    8.6442    8.4057 N   0  0  0  0  0  0  0  0  0  0  0  0
  -16.6965    9.3589    7.1135 C   0  0  2  0  0  0  0  0  0  0  0  0
  -17.9991    9.9924    6.9437 C   0  0  0  0  0  0  0  0  0  0  0  0
  -19.0265    9.3079    7.2624 O   0  0  0  0  0  0  0  0  0  0  0  0
  -16.3322    8.3775    6.0372 C   0  0  0  0  0  0  0  0  0  0  0  0
  -16.3865    9.0001    4.7013 C   0  0  0  0  0  0  0  0  0  0  0  0
  -15.3307    9.7440    4.2423 C   0  0  0  0  0  0  0  0  0  0  0  0
  -17.4881    8.8751    3.8502 C   0  0  0  0  0  0  0  0  0  0  0  0
  -15.3619   10.3425    2.9851 C   0  0  0  0  0  0  0  0  0  0  0  0
  -17.5183    9.4634    2.6152 C   0  0  0  0  0  0  0  0  0  0  0  0
  -16.4675   10.2033    2.1567 C   0  0  0  0  0  0  0  0  0  0  0  0
  -16.4978   10.8060    0.8936 O   0  0  0  0  0  0  0  0  0  0  0  0
  -18.2886   11.2867    6.4637 N   0  0  0  0  0  0  0  0  0  0  0  0
  -19.6008   11.7186    6.0741 C   0  0  2  0  0  0  0  0  0  0  0  0
  -19.7944   11.9741    4.6431 C   0  0  0  0  0  0  0  0  0  0  0  0
  -18.9146   12.1526    3.7855 O   0  0  0  0  0  0  0  0  0  0  0  0
  -19.8215   13.0768    6.7853 C   0  0  0  0  0  0  0  0  0  0  0  0
  -20.9847   13.6917    6.4126 O   0  0  0  0  0  0  0  0  0  0  0  0
  -21.1684   12.0194    4.2019 N   0  0  0  0  0  0  0  0  0  0  0  0
  -21.4923   12.6383    2.9110 C   0  0  2  0  0  0  0  0  0  0  0  0
  -22.5076   13.6668    3.1260 C   0  0  0  0  0  0  0  0  0  0  0  0
  -22.2209   14.8392    2.9723 O   0  0  0  0  0  0  0  0  0  0  0  0
  -21.9461   11.4847    2.0302 C   0  0  0  0  0  0  0  0  0  0  0  0
  -22.7309   10.4489    2.7636 C   0  0  0  0  0  0  0  0  0  0  0  0
  -24.1603   10.8386    3.0060 C   0  0  0  0  0  0  0  0  0  0  0  0
  -24.9128    9.8694    3.7290 N   0  0  0  0  0  0  0  0  0  0  0  0
  -25.6224    8.8094    3.1209 C   0  0  0  0  0  0  0  0  0  0  0  0
  -26.1759    8.9945    1.8376 N   0  0  0  0  0  0  0  0  0  0  0  0
  -25.7767    7.6871    3.7133 N   0  0  0  0  0  0  0  0  0  0  0  0
  -21.7347    6.9227   12.6889 H   0  0  0  0  0  0  0  0  0  0  0  0
  -25.4153    7.4543    4.6438 H   0  0  0  0  0  0  0  0  0  0  0  0
  1  2  2  0
  3  1  1  6
  1  4  1  0
  5  4  1  1
  5  6  1  0
  8  5  1  1
  6  7  2  0
  6 15  1  0
  8  9  1  0
  9 10  1  6
 10 11  1  6
 11 12  1  0
 12 13  1  0
 12 14  2  0
 16 15  1  1
 16 17  1  0
 16 19  1  0
 17 18  2  0
 17 27  1  0
 19 20  1  6
 20 21  2  0
 20 22  1  0
 21 23  1  0
 22 24  2  0
 23 25  2  0
 24 25  1  0
 25 26  1  0
 28 27  1  6
 28 29  1  0
 28 31  1  0
 29 30  2  0
 29 33  1  0
 31 32  1  6
 34 33  1  1
 34 35  1  0
 37 34  1  1
 35 36  2  0
 37 38  1  0
 38 39  1  6
 39 40  1  6
 40 41  1  0
 41 42  1  0
 41 43  2  0
 14 44  1  0
 43 45  1  0
M  END
$$$$
