
     RDKit          3D

 45 45  0  0  0  0  0  0  0  0999 V2000
  -14.6945    7.0389   12.0264 C   0  0  0  0  0  0  0  0  0  0  0  0
  -14.8122    5.7852   12.0040 O   0  0  0  0  0  0  0  0  0  0  0  0
  -13.6279    7.6008   12.8956 C   0  0  0  0  0  0  0  0  0  0  0  0
  -15.5169    7.9218   11.2737 N   0  0  0  0  0  0  0  0  0  0  0  0
  -16.5016    7.3924   10.3753 C   0  0  2  0  0  0  0  0  0  0  0  0
  -16.4591    8.1849    9.1171 C   0  0  0  0  0  0  0  0  0  0  0  0
  -15.3460    8.5834    8.6581 O   0  0  0  0  0  0  0  0  0  0  0  0
  -17.8955    7.5603   10.9425 C   0  0  0  0  0  0  0  0  0  0  0  0
  -17.9350    8.7050   11.9468 C   0  0  0  0  0  0  0  0  0  0  0  0
  -18.5578    9.8852   11.2379 C   0  0  0  0  0  0  0  0  0  0  0  0
  -18.8586   10.9605   12.1650 N   0  0  0  0  0  0  0  0  0  0  0  0
  -19.4919   12.1354   11.6727 C   0  0  0  0  0  0  0  0  0  0  0  0
  -20.5469   12.0172   10.7096 N   0  0  0  0  0  0  0  0  0  0  0  0
  -19.1395   13.3085   12.0710 N   0  0  0  0  0  0  0  0  0  0  0  0
  -17.6034    8.5474    8.3591 N   0  0  0  0  0  0  0  0  0  0  0  0
  -17.4829    9.3981    7.1575 C   0  0  2  0  0  0  0  0  0  0  0  0
  -18.8002    9.8929    6.7746 C   0  0  0  0  0  0  0  0  0  0  0  0
  -19.6019    9.0605    6.2359 O   0  0  0  0  0  0  0  0  0  0  0  0
  -16.7825    8.5967    6.0984 C   0  0  0  0  0  0  0  0  0  0  0  0
  -16.5544    9.3978    4.8812 C   0  0  0  0  0  0  0  0  0  0  0  0
  -17.3964    9.2766    3.8064 C   0  0  0  0  0  0  0  0  0  0  0  0
  -15.4941   10.2996    4.7541 C   0  0  0  0  0  0  0  0  0  0  0  0
  -17.1982   10.0217    2.6467 C   0  0  0  0  0  0  0  0  0  0  0  0
  -15.2997   11.0313    3.6145 C   0  0  0  0  0  0  0  0  0  0  0  0
  -16.1378   10.9123    2.5442 C   0  0  0  0  0  0  0  0  0  0  0  0
  -15.9394   11.6602    1.3775 O   0  0  0  0  0  0  0  0  0  0  0  0
  -19.3238   11.1946    6.9189 N   0  0  0  0  0  0  0  0  0  0  0  0
  -20.5294   11.6451    6.2836 C   0  0  2  0  0  0  0  0  0  0  0  0
  -20.5715   11.5193    4.8232 C   0  0  0  0  0  0  0  0  0  0  0  0
  -19.6069   11.3981    4.0510 O   0  0  0  0  0  0  0  0  0  0  0  0
  -20.6188   13.1616    6.5855 C   0  0  0  0  0  0  0  0  0  0  0  0
  -19.3926   13.7534    6.7144 O   0  0  0  0  0  0  0  0  0  0  0  0
  -21.8907   11.5409    4.2370 N   0  0  0  0  0  0  0  0  0  0  0  0
  -22.0335   11.7105    2.7860 C   0  0  2  0  0  0  0  0  0  0  0  0
  -21.6661   13.0807    2.4359 C   0  0  0  0  0  0  0  0  0  0  0  0
  -21.4516   13.8918    3.3170 O   0  0  0  0  0  0  0  0  0  0  0  0
  -23.4835   11.3568    2.4944 C   0  0  0  0  0  0  0  0  0  0  0  0
  -23.9483   10.1247    3.1961 C   0  0  0  0  0  0  0  0  0  0  0  0
  -23.3453    8.8613    2.6538 C   0  0  0  0  0  0  0  0  0  0  0  0
  -24.0821    8.2780    1.5836 N   0  0  0  0  0  0  0  0  0  0  0  0
  -25.4789    8.4175    1.4211 C   0  0  0  0  0  0  0  0  0  0  0  0
  -26.3269    7.3508    1.7823 N   0  0  0  0  0  0  0  0  0  0  0  0
  -25.9889    9.4903    0.9485 N   0  0  0  0  0  0  0  0  0  0  0  0
  -18.1714   13.6688   12.0850 H   0  0  0  0  0  0  0  0  0  0  0  0
  -25.5020   10.1620    0.3466 H   0  0  0  0  0  0  0  0  0  0  0  0
  1  2  2  0
  3  1  1  6
  1  4  1  0
  5  4  1  1
  5  6  1  0
  8  5  1  1
  6  7  2  0
  6 15  1  0
  8  9  1  0
  9 10  1  6
 10 11  1  6
 11 12  1  0
 12 13  1  0
 12 14  2  0
 16 15  1  1
 16 17  1  0
 16 19  1  0
 17 18  2  0
 17 27  1  0
 19 20  1  6
 20 21  2  0
 20 22  1  0
 21 23  1  0
 22 24  2  0
 23 25  2  0
 24 25  1  0
 25 26  1  0
 28 27  1  6
 28 29  1  0
 28 31  1  0
 29 30  2  0
 29 33  1  0
 31 32  1  6
 34 33  1  1
 34 35  1  0
 37 34  1  1
 35 36  2  0
 37 38  1  0
 38 39  1  6
 39 40  1  6
 40 41  1  0
 41 42  1  0
 41 43  2  0
 14 44  1  0
 43 45  1  0
M  END
$$$$
