
     RDKit          3D

 45 45  0  0  0  0  0  0  0  0999 V2000
  -14.4401    9.2293    9.7090 C   0  0  0  0  0  0  0  0  0  0  0  0
  -14.1054    8.8144    8.6025 O   0  0  0  0  0  0  0  0  0  0  0  0
  -13.3807    9.8385   10.6014 C   0  0  0  0  0  0  0  0  0  0  0  0
  -15.7485    9.1955   10.2510 N   0  0  0  0  0  0  0  0  0  0  0  0
  -16.8899    8.8558    9.4660 C   0  0  2  0  0  0  0  0  0  0  0  0
  -17.1336    9.8694    8.4335 C   0  0  0  0  0  0  0  0  0  0  0  0
  -16.2002   10.6601    8.0400 O   0  0  0  0  0  0  0  0  0  0  0  0
  -18.0722    8.4880   10.2702 C   0  0  0  0  0  0  0  0  0  0  0  0
  -17.9783    7.1496   10.9068 C   0  0  0  0  0  0  0  0  0  0  0  0
  -17.1566    6.9735   12.1235 C   0  0  0  0  0  0  0  0  0  0  0  0
  -17.7621    7.6838   13.2677 N   0  0  0  0  0  0  0  0  0  0  0  0
  -17.1152    7.6106   14.5193 C   0  0  0  0  0  0  0  0  0  0  0  0
  -17.8673    7.2602   15.6663 N   0  0  0  0  0  0  0  0  0  0  0  0
  -15.8328    7.8652   14.6221 N   0  0  0  0  0  0  0  0  0  0  0  0
  -18.4044   10.0315    7.8244 N   0  0  0  0  0  0  0  0  0  0  0  0
  -18.6254   11.0607    6.8259 C   0  0  2  0  0  0  0  0  0  0  0  0
  -20.0327   10.9835    6.2792 C   0  0  0  0  0  0  0  0  0  0  0  0
  -20.5917    9.9466    5.9194 O   0  0  0  0  0  0  0  0  0  0  0  0
  -17.7054   10.9047    5.6774 C   0  0  0  0  0  0  0  0  0  0  0  0
  -17.7816    9.6830    4.8954 C   0  0  0  0  0  0  0  0  0  0  0  0
  -16.7199    8.8376    4.7771 C   0  0  0  0  0  0  0  0  0  0  0  0
  -18.9537    9.3650    4.2277 C   0  0  0  0  0  0  0  0  0  0  0  0
  -16.7983    7.6796    4.0079 C   0  0  0  0  0  0  0  0  0  0  0  0
  -19.0436    8.2072    3.4543 C   0  0  0  0  0  0  0  0  0  0  0  0
  -17.9747    7.3506    3.3317 C   0  0  0  0  0  0  0  0  0  0  0  0
  -18.0273    6.1929    2.5702 O   0  0  0  0  0  0  0  0  0  0  0  0
  -20.7448   12.2215    6.1856 N   0  0  0  0  0  0  0  0  0  0  0  0
  -22.1214   12.3441    5.7919 C   0  0  2  0  0  0  0  0  0  0  0  0
  -22.4134   11.6336    4.5290 C   0  0  0  0  0  0  0  0  0  0  0  0
  -22.5914   10.3693    4.6110 O   0  0  0  0  0  0  0  0  0  0  0  0
  -22.4955   13.8317    5.6428 C   0  0  0  0  0  0  0  0  0  0  0  0
  -23.3427   14.1458    6.6785 O   0  0  0  0  0  0  0  0  0  0  0  0
  -22.5106   12.2035    3.2518 N   0  0  0  0  0  0  0  0  0  0  0  0
  -22.7784   11.4348    2.0302 C   0  0  2  0  0  0  0  0  0  0  0  0
  -22.2694   10.0816    2.1923 C   0  0  0  0  0  0  0  0  0  0  0  0
  -22.8911    9.1006    2.5184 O   0  0  0  0  0  0  0  0  0  0  0  0
  -22.4016   12.1523    0.7843 C   0  0  0  0  0  0  0  0  0  0  0  0
  -20.9128   12.1890    0.5828 C   0  0  0  0  0  0  0  0  0  0  0  0
  -20.5108   12.9695   -0.6464 C   0  0  0  0  0  0  0  0  0  0  0  0
  -19.0683   13.0104   -0.7725 N   0  0  0  0  0  0  0  0  0  0  0  0
  -18.3781   14.2396   -0.9417 C   0  0  0  0  0  0  0  0  0  0  0  0
  -16.9531   14.2729   -0.7081 N   0  0  0  0  0  0  0  0  0  0  0  0
  -18.9823   15.3095   -1.2946 N   0  0  0  0  0  0  0  0  0  0  0  0
  -15.2986    7.9586   13.7398 H   0  0  0  0  0  0  0  0  0  0  0  0
  -20.0006   15.3014   -1.4559 H   0  0  0  0  0  0  0  0  0  0  0  0
  1  2  2  0
  1  3  1  0
  1  4  1  0
  4  5  1  0
  5  6  1  0
  5  8  1  1
  6  7  2  0
  6 15  1  0
  8  9  1  0
  9 10  1  0
 10 11  1  0
 11 12  1  0
 12 13  1  0
 12 14  2  0
 15 16  1  0
 16 17  1  0
 16 19  1  6
 17 18  2  0
 17 27  1  0
 19 20  1  0
 20 21  2  0
 20 22  1  0
 21 23  1  0
 22 24  2  0
 23 25  2  0
 24 25  1  0
 25 26  1  0
 27 28  1  0
 28 29  1  0
 28 31  1  6
 29 30  2  0
 29 33  1  0
 31 32  1  0
 33 34  1  0
 34 35  1  0
 34 37  1  6
 35 36  2  0
 37 38  1  0
 38 39  1  0
 39 40  1  0
 40 41  1  0
 41 42  1  0
 41 43  2  0
 14 44  1  0
 43 45  1  0
M  END
$$$$
