
     RDKit          3D

 45 45  0  0  0  0  0  0  0  0999 V2000
  -13.8969    7.7502    9.7777 C   0  0  0  0  0  0  0  0  0  0  0  0
  -13.8019    6.9184    8.8369 O   0  0  0  0  0  0  0  0  0  0  0  0
  -12.6528    8.0668   10.5265 C   0  0  0  0  0  0  0  0  0  0  0  0
  -15.1136    8.3871   10.1474 N   0  0  0  0  0  0  0  0  0  0  0  0
  -16.3213    8.0951    9.4312 C   0  0  2  0  0  0  0  0  0  0  0  0
  -16.6933    9.2953    8.6350 C   0  0  0  0  0  0  0  0  0  0  0  0
  -16.3403   10.4486    9.0273 O   0  0  0  0  0  0  0  0  0  0  0  0
  -17.4678    7.8410   10.3872 C   0  0  0  0  0  0  0  0  0  0  0  0
  -17.5051    8.9026   11.4791 C   0  0  0  0  0  0  0  0  0  0  0  0
  -18.6550    8.5475   12.3929 C   0  0  0  0  0  0  0  0  0  0  0  0
  -18.7766    9.4973   13.4835 N   0  0  0  0  0  0  0  0  0  0  0  0
  -19.7404    9.2552   14.5015 C   0  0  0  0  0  0  0  0  0  0  0  0
  -20.7027    8.2073   14.3268 N   0  0  0  0  0  0  0  0  0  0  0  0
  -19.7717    9.9572   15.5809 N   0  0  0  0  0  0  0  0  0  0  0  0
  -17.4395    9.2569    7.4280 N   0  0  0  0  0  0  0  0  0  0  0  0
  -17.4738   10.4187    6.5164 C   0  0  2  0  0  0  0  0  0  0  0  0
  -18.8586   10.7905    6.2500 C   0  0  0  0  0  0  0  0  0  0  0  0
  -19.6500   10.8455    7.2483 O   0  0  0  0  0  0  0  0  0  0  0  0
  -16.6740   10.0658    5.2956 C   0  0  0  0  0  0  0  0  0  0  0  0
  -17.5102   10.0863    4.0809 C   0  0  0  0  0  0  0  0  0  0  0  0
  -17.7964   11.2739    3.4590 C   0  0  0  0  0  0  0  0  0  0  0  0
  -18.0480    8.9293    3.5103 C   0  0  0  0  0  0  0  0  0  0  0  0
  -18.5856   11.3164    2.3123 C   0  0  0  0  0  0  0  0  0  0  0  0
  -18.8234    8.9715    2.3838 C   0  0  0  0  0  0  0  0  0  0  0  0
  -19.1082   10.1529    1.7633 C   0  0  0  0  0  0  0  0  0  0  0  0
  -19.9019   10.1972    0.6110 O   0  0  0  0  0  0  0  0  0  0  0  0
  -19.4599   11.1040    5.0133 N   0  0  0  0  0  0  0  0  0  0  0  0
  -20.8719   11.0218    4.7685 C   0  0  2  0  0  0  0  0  0  0  0  0
  -21.3049   11.3203    3.3996 C   0  0  0  0  0  0  0  0  0  0  0  0
  -20.6080   11.7551    2.4686 O   0  0  0  0  0  0  0  0  0  0  0  0
  -21.5151   12.1069    5.6673 C   0  0  0  0  0  0  0  0  0  0  0  0
  -20.8840   13.3169    5.5781 O   0  0  0  0  0  0  0  0  0  0  0  0
  -22.7005   11.0746    3.1236 N   0  0  0  0  0  0  0  0  0  0  0  0
  -23.4780   12.0770    2.3852 C   0  0  2  0  0  0  0  0  0  0  0  0
  -24.6422   12.4498    3.1856 C   0  0  0  0  0  0  0  0  0  0  0  0
  -25.5092   11.6262    3.4097 O   0  0  0  0  0  0  0  0  0  0  0  0
  -23.8158   11.4089    1.0616 C   0  0  0  0  0  0  0  0  0  0  0  0
  -23.5345    9.9436    1.0457 C   0  0  0  0  0  0  0  0  0  0  0  0
  -24.6857    9.1166    0.5509 C   0  0  0  0  0  0  0  0  0  0  0  0
  -25.5733    9.8153   -0.3165 N   0  0  0  0  0  0  0  0  0  0  0  0
  -26.8237    9.3093   -0.7377 C   0  0  0  0  0  0  0  0  0  0  0  0
  -27.9333    9.4008    0.1270 N   0  0  0  0  0  0  0  0  0  0  0  0
  -26.9679    8.7658   -1.8858 N   0  0  0  0  0  0  0  0  0  0  0  0
  -19.1329   10.7376   15.8047 H   0  0  0  0  0  0  0  0  0  0  0  0
  -26.4784    7.9249   -2.2083 H   0  0  0  0  0  0  0  0  0  0  0  0
  1  2  2  0
  3  1  1  6
  1  4  1  0
  5  4  1  1
  5  6  1  0
  8  5  1  1
  6  7  2  0
  6 15  1  0
  8  9  1  0
  9 10  1  6
 10 11  1  6
 11 12  1  0
 12 13  1  0
 12 14  2  0
 16 15  1  1
 16 17  1  0
 16 19  1  0
 17 18  2  0
 17 27  1  0
 19 20  1  6
 20 21  2  0
 20 22  1  0
 21 23  1  0
 22 24  2  0
 23 25  2  0
 24 25  1  0
 25 26  1  0
 28 27  1  6
 28 29  1  0
 28 31  1  0
 29 30  2  0
 29 33  1  0
 31 32  1  6
 34 33  1  1
 34 35  1  0
 37 34  1  1
 35 36  2  0
 37 38  1  0
 38 39  1  6
 39 40  1  6
 40 41  1  0
 41 42  1  0
 41 43  2  0
 14 44  1  0
 43 45  1  0
M  END
$$$$
