
     RDKit          3D

 45 45  0  0  0  0  0  0  0  0999 V2000
  -17.0611    7.9441   11.3694 C   0  0  0  0  0  0  0  0  0  0  0  0
  -17.3848    6.8636   10.8092 O   0  0  0  0  0  0  0  0  0  0  0  0
  -15.9777    7.8793   12.3847 C   0  0  0  0  0  0  0  0  0  0  0  0
  -17.6708    9.1960   11.0802 N   0  0  0  0  0  0  0  0  0  0  0  0
  -18.7867    9.2586   10.1815 C   0  0  2  0  0  0  0  0  0  0  0  0
  -18.3098    9.8054    8.8829 C   0  0  0  0  0  0  0  0  0  0  0  0
  -17.1073   10.1900    8.7623 O   0  0  0  0  0  0  0  0  0  0  0  0
  -19.8384   10.2204   10.6929 C   0  0  0  0  0  0  0  0  0  0  0  0
  -20.3587    9.7770   12.0542 C   0  0  0  0  0  0  0  0  0  0  0  0
  -21.8653    9.8785   11.9989 C   0  0  0  0  0  0  0  0  0  0  0  0
  -22.4255    8.9253   11.0587 N   0  0  0  0  0  0  0  0  0  0  0  0
  -23.8230    8.9603   10.7950 C   0  0  0  0  0  0  0  0  0  0  0  0
  -24.6277    9.9860   11.3907 N   0  0  0  0  0  0  0  0  0  0  0  0
  -24.3871    8.0893   10.0319 N   0  0  0  0  0  0  0  0  0  0  0  0
  -19.1185    9.9391    7.7239 N   0  0  0  0  0  0  0  0  0  0  0  0
  -18.6027   10.5991    6.5071 C   0  0  2  0  0  0  0  0  0  0  0  0
  -19.6746   10.7224    5.5260 C   0  0  0  0  0  0  0  0  0  0  0  0
  -20.2732    9.6515    5.1786 O   0  0  0  0  0  0  0  0  0  0  0  0
  -17.4086    9.8203    6.0359 C   0  0  0  0  0  0  0  0  0  0  0  0
  -17.5501    9.4224    4.6228 C   0  0  0  0  0  0  0  0  0  0  0  0
  -17.2225   10.2997    3.6218 C   0  0  0  0  0  0  0  0  0  0  0  0
  -18.0167    8.1643    4.2318 C   0  0  0  0  0  0  0  0  0  0  0  0
  -17.3505    9.9455    2.2810 C   0  0  0  0  0  0  0  0  0  0  0  0
  -18.1424    7.8167    2.9145 C   0  0  0  0  0  0  0  0  0  0  0  0
  -17.8157    8.6888    1.9171 C   0  0  0  0  0  0  0  0  0  0  0  0
  -17.9445    8.3344    0.5690 O   0  0  0  0  0  0  0  0  0  0  0  0
  -20.1525   11.8879    4.8915 N   0  0  0  0  0  0  0  0  0  0  0  0
  -21.1781   11.8867    3.8872 C   0  0  2  0  0  0  0  0  0  0  0  0
  -21.5515   13.1986    3.3489 C   0  0  0  0  0  0  0  0  0  0  0  0
  -21.2133   14.3124    3.7809 O   0  0  0  0  0  0  0  0  0  0  0  0
  -22.4453   11.3338    4.5855 C   0  0  0  0  0  0  0  0  0  0  0  0
  -22.7360   11.9811    5.7546 O   0  0  0  0  0  0  0  0  0  0  0  0
  -22.4081   13.1709    2.1871 N   0  0  0  0  0  0  0  0  0  0  0  0
  -21.9212   13.7236    0.9175 C   0  0  2  0  0  0  0  0  0  0  0  0
  -22.7618   13.2194   -0.1661 C   0  0  0  0  0  0  0  0  0  0  0  0
  -22.3050   12.4215   -0.9629 O   0  0  0  0  0  0  0  0  0  0  0  0
  -20.4666   13.2877    0.8365 C   0  0  0  0  0  0  0  0  0  0  0  0
  -20.1691   12.4229   -0.3426 C   0  0  0  0  0  0  0  0  0  0  0  0
  -19.7586   13.1935   -1.5639 C   0  0  0  0  0  0  0  0  0  0  0  0
  -18.3660   13.4850   -1.6267 N   0  0  0  0  0  0  0  0  0  0  0  0
  -17.5471   13.1817   -2.7378 C   0  0  0  0  0  0  0  0  0  0  0  0
  -18.1140   12.5464   -3.8614 N   0  0  0  0  0  0  0  0  0  0  0  0
  -16.3011   13.4678   -2.7427 N   0  0  0  0  0  0  0  0  0  0  0  0
  -23.8987    7.3311    9.5280 H   0  0  0  0  0  0  0  0  0  0  0  0
  -15.7909   13.9040   -1.9682 H   0  0  0  0  0  0  0  0  0  0  0  0
  1  2  2  0
  3  1  1  6
  1  4  1  0
  5  4  1  1
  5  6  1  0
  8  5  1  1
  6  7  2  0
  6 15  1  0
  8  9  1  0
  9 10  1  6
 10 11  1  6
 11 12  1  0
 12 13  1  0
 12 14  2  0
 16 15  1  1
 16 17  1  0
 16 19  1  0
 17 18  2  0
 17 27  1  0
 19 20  1  6
 20 21  2  0
 20 22  1  0
 21 23  1  0
 22 24  2  0
 23 25  2  0
 24 25  1  0
 25 26  1  0
 28 27  1  1
 28 29  1  0
 28 31  1  0
 29 30  2  0
 29 33  1  0
 31 32  1  6
 34 33  1  1
 34 35  1  0
 37 34  1  1
 35 36  2  0
 37 38  1  0
 38 39  1  6
 39 40  1  6
 40 41  1  0
 41 42  1  0
 41 43  2  0
 14 44  1  0
 43 45  1  0
M  END
$$$$
