
     RDKit          3D

 45 45  0  0  0  0  0  0  0  0999 V2000
  -16.9895    7.6991   10.0754 C   0  0  0  0  0  0  0  0  0  0  0  0
  -15.9451    7.2175   10.5063 O   0  0  0  0  0  0  0  0  0  0  0  0
  -17.8876    6.8285    9.2236 C   0  0  0  0  0  0  0  0  0  0  0  0
  -17.4526    9.0192   10.2981 N   0  0  0  0  0  0  0  0  0  0  0  0
  -18.7260    9.4679    9.8382 C   0  0  2  0  0  0  0  0  0  0  0  0
  -18.5758   10.5575    8.8670 C   0  0  0  0  0  0  0  0  0  0  0  0
  -17.9043   11.6162    9.1493 O   0  0  0  0  0  0  0  0  0  0  0  0
  -19.6886    9.7307   10.9264 C   0  0  0  0  0  0  0  0  0  0  0  0
  -20.0513   11.1625   11.0805 C   0  0  0  0  0  0  0  0  0  0  0  0
  -19.2652   12.0232   11.9903 C   0  0  0  0  0  0  0  0  0  0  0  0
  -19.5331   11.6724   13.3994 N   0  0  0  0  0  0  0  0  0  0  0  0
  -18.5663   10.9182   14.0969 C   0  0  0  0  0  0  0  0  0  0  0  0
  -17.1937   11.1358   13.8272 N   0  0  0  0  0  0  0  0  0  0  0  0
  -18.9319   10.0241   14.9840 N   0  0  0  0  0  0  0  0  0  0  0  0
  -19.1642   10.5016    7.5775 N   0  0  0  0  0  0  0  0  0  0  0  0
  -18.8512   11.5001    6.5725 C   0  0  2  0  0  0  0  0  0  0  0  0
  -20.1157   12.0923    5.9934 C   0  0  0  0  0  0  0  0  0  0  0  0
  -20.9019   11.4918    5.2597 O   0  0  0  0  0  0  0  0  0  0  0  0
  -18.0927   10.9124    5.4459 C   0  0  0  0  0  0  0  0  0  0  0  0
  -16.9792   10.0310    5.7512 C   0  0  0  0  0  0  0  0  0  0  0  0
  -17.0587    8.6830    5.5712 C   0  0  0  0  0  0  0  0  0  0  0  0
  -15.8033   10.5587    6.2607 C   0  0  0  0  0  0  0  0  0  0  0  0
  -15.9919    7.8459    5.8869 C   0  0  0  0  0  0  0  0  0  0  0  0
  -14.7277    9.7294    6.5803 C   0  0  0  0  0  0  0  0  0  0  0  0
  -14.8031    8.3680    6.4004 C   0  0  0  0  0  0  0  0  0  0  0  0
  -13.7555    7.5135    6.7090 O   0  0  0  0  0  0  0  0  0  0  0  0
  -20.3957   13.4520    6.3417 N   0  0  0  0  0  0  0  0  0  0  0  0
  -21.0040   14.4118    5.4619 C   0  0  2  0  0  0  0  0  0  0  0  0
  -21.4301   13.8124    4.1797 C   0  0  0  0  0  0  0  0  0  0  0  0
  -21.5113   14.6028    3.1768 O   0  0  0  0  0  0  0  0  0  0  0  0
  -20.0241   15.5692    5.1876 C   0  0  0  0  0  0  0  0  0  0  0  0
  -18.8795   15.0194    4.6614 O   0  0  0  0  0  0  0  0  0  0  0  0
  -21.7577   12.4684    3.9525 N   0  0  0  0  0  0  0  0  0  0  0  0
  -22.5952   12.0064    2.8389 C   0  0  2  0  0  0  0  0  0  0  0  0
  -23.1921   10.7257    3.1853 C   0  0  0  0  0  0  0  0  0  0  0  0
  -24.3650   10.4441    3.1944 O   0  0  0  0  0  0  0  0  0  0  0  0
  -21.9263   12.1027    1.5151 C   0  0  0  0  0  0  0  0  0  0  0  0
  -20.9322   10.9956    1.3035 C   0  0  0  0  0  0  0  0  0  0  0  0
  -19.6796   11.4643    0.6014 C   0  0  0  0  0  0  0  0  0  0  0  0
  -19.7050   11.0774   -0.7943 N   0  0  0  0  0  0  0  0  0  0  0  0
  -18.5536   10.5450   -1.4323 C   0  0  0  0  0  0  0  0  0  0  0  0
  -17.2504   10.8985   -0.9192 N   0  0  0  0  0  0  0  0  0  0  0  0
  -18.6414    9.7651   -2.4413 N   0  0  0  0  0  0  0  0  0  0  0  0
  -19.9340    9.7640   15.0056 H   0  0  0  0  0  0  0  0  0  0  0  0
  -19.5552    9.3769   -2.7193 H   0  0  0  0  0  0  0  0  0  0  0  0
  1  2  2  0
  1  3  1  0
  1  4  1  0
  4  5  1  0
  5  6  1  0
  5  8  1  1
  6  7  2  0
  6 15  1  0
  8  9  1  0
  9 10  1  0
 10 11  1  0
 11 12  1  0
 12 13  1  0
 12 14  2  0
 15 16  1  0
 16 17  1  0
 16 19  1  6
 17 18  2  0
 17 27  1  0
 19 20  1  0
 20 21  2  0
 20 22  1  0
 21 23  1  0
 22 24  2  0
 23 25  2  0
 24 25  1  0
 25 26  1  0
 27 28  1  0
 28 29  1  0
 28 31  1  6
 29 30  2  0
 29 33  1  0
 31 32  1  0
 33 34  1  0
 34 35  1  0
 34 37  1  6
 35 36  2  0
 37 38  1  0
 38 39  1  0
 39 40  1  0
 40 41  1  0
 41 42  1  0
 41 43  2  0
 14 44  1  0
 43 45  1  0
M  END
$$$$
