
     RDKit          3D

 45 45  0  0  0  0  0  0  0  0999 V2000
  -19.7372    9.7552   11.1872 C   0  0  0  0  0  0  0  0  0  0  0  0
  -19.3432   10.8244   11.6455 O   0  0  0  0  0  0  0  0  0  0  0  0
  -21.1368    9.2949   11.5323 C   0  0  0  0  0  0  0  0  0  0  0  0
  -18.9985    8.8854   10.3479 N   0  0  0  0  0  0  0  0  0  0  0  0
  -17.6534    9.1601    9.9610 C   0  0  2  0  0  0  0  0  0  0  0  0
  -17.6089   10.2121    8.9391 C   0  0  0  0  0  0  0  0  0  0  0  0
  -16.7383   11.1560    8.9894 O   0  0  0  0  0  0  0  0  0  0  0  0
  -16.8705    7.9492    9.6439 C   0  0  0  0  0  0  0  0  0  0  0  0
  -16.4726    7.1569   10.8353 C   0  0  0  0  0  0  0  0  0  0  0  0
  -15.7934    7.8255   11.9658 C   0  0  0  0  0  0  0  0  0  0  0  0
  -15.2548    6.8285   12.9126 N   0  0  0  0  0  0  0  0  0  0  0  0
  -16.0147    6.5156   14.0593 C   0  0  0  0  0  0  0  0  0  0  0  0
  -15.3491    6.0929   15.2350 N   0  0  0  0  0  0  0  0  0  0  0  0
  -17.3224    6.6127   14.0386 N   0  0  0  0  0  0  0  0  0  0  0  0
  -18.5212   10.2444    7.8533 N   0  0  0  0  0  0  0  0  0  0  0  0
  -18.4541   11.2958    6.8557 C   0  0  2  0  0  0  0  0  0  0  0  0
  -19.7638   11.4109    6.1096 C   0  0  0  0  0  0  0  0  0  0  0  0
  -20.7133   10.6360    6.2315 O   0  0  0  0  0  0  0  0  0  0  0  0
  -17.4052   11.0185    5.8492 C   0  0  0  0  0  0  0  0  0  0  0  0
  -17.3832    9.7090    5.2210 C   0  0  0  0  0  0  0  0  0  0  0  0
  -18.1924    9.4025    4.1688 C   0  0  0  0  0  0  0  0  0  0  0  0
  -16.5358    8.7262    5.7076 C   0  0  0  0  0  0  0  0  0  0  0  0
  -18.1773    8.1372    3.5879 C   0  0  0  0  0  0  0  0  0  0  0  0
  -16.5120    7.4549    5.1331 C   0  0  0  0  0  0  0  0  0  0  0  0
  -17.3270    7.1406    4.0708 C   0  0  0  0  0  0  0  0  0  0  0  0
  -17.3318    5.8877    3.4766 O   0  0  0  0  0  0  0  0  0  0  0  0
  -19.8816   12.5121    5.2029 N   0  0  0  0  0  0  0  0  0  0  0  0
  -21.0458   12.7957    4.4094 C   0  0  2  0  0  0  0  0  0  0  0  0
  -21.1879   11.8717    3.2644 C   0  0  0  0  0  0  0  0  0  0  0  0
  -20.1193   11.3012    2.8526 O   0  0  0  0  0  0  0  0  0  0  0  0
  -20.9906   14.2472    3.8946 C   0  0  0  0  0  0  0  0  0  0  0  0
  -22.2042   14.5197    3.3097 O   0  0  0  0  0  0  0  0  0  0  0  0
  -22.3726   11.5610    2.5824 N   0  0  0  0  0  0  0  0  0  0  0  0
  -22.4137   10.9265    1.2592 C   0  0  2  0  0  0  0  0  0  0  0  0
  -21.7473   11.7861    0.2930 C   0  0  0  0  0  0  0  0  0  0  0  0
  -20.7454   12.4365    0.4615 O   0  0  0  0  0  0  0  0  0  0  0  0
  -23.7587   10.4130    0.8900 C   0  0  0  0  0  0  0  0  0  0  0  0
  -24.0847    9.1268    1.5958 C   0  0  0  0  0  0  0  0  0  0  0  0
  -25.4385    8.5785    1.2108 C   0  0  0  0  0  0  0  0  0  0  0  0
  -26.4901    9.2794    1.9187 N   0  0  0  0  0  0  0  0  0  0  0  0
  -27.8545    8.9238    1.7516 C   0  0  0  0  0  0  0  0  0  0  0  0
  -28.8231    9.4255    2.6985 N   0  0  0  0  0  0  0  0  0  0  0  0
  -28.2441    8.1771    0.7899 N   0  0  0  0  0  0  0  0  0  0  0  0
  -17.7580    6.9238   13.1521 H   0  0  0  0  0  0  0  0  0  0  0  0
  -27.5568    7.7660    0.1407 H   0  0  0  0  0  0  0  0  0  0  0  0
  1  2  2  0
  1  3  1  0
  1  4  1  0
  4  5  1  0
  5  6  1  0
  5  8  1  6
  6  7  2  0
  6 15  1  0
  8  9  1  0
  9 10  1  0
 10 11  1  0
 11 12  1  0
 12 13  1  0
 12 14  2  0
 15 16  1  0
 16 17  1  0
 16 19  1  6
 17 18  2  0
 17 27  1  0
 19 20  1  0
 20 21  2  0
 20 22  1  0
 21 23  1  0
 22 24  2  0
 23 25  2  0
 24 25  1  0
 25 26  1  0
 27 28  1  0
 28 29  1  0
 28 31  1  6
 29 30  2  0
 29 33  1  0
 31 32  1  0
 33 34  1  0
 34 35  1  0
 34 37  1  6
 35 36  2  0
 37 38  1  0
 38 39  1  0
 39 40  1  0
 40 41  1  0
 41 42  1  0
 41 43  2  0
 14 44  1  0
 43 45  1  0
M  END
$$$$
