
     RDKit          3D

 45 45  0  0  0  0  0  0  0  0999 V2000
  -18.6729    9.4564    9.7205 C   0  0  0  0  0  0  0  0  0  0  0  0
  -18.1230    8.4256    9.2502 O   0  0  0  0  0  0  0  0  0  0  0  0
  -18.0969   10.0176   10.9703 C   0  0  0  0  0  0  0  0  0  0  0  0
  -19.7945   10.0944    9.1225 N   0  0  0  0  0  0  0  0  0  0  0  0
  -20.3739    9.5527    7.9277 C   0  0  2  0  0  0  0  0  0  0  0  0
  -19.6060   10.0672    6.7621 C   0  0  0  0  0  0  0  0  0  0  0  0
  -18.3787    9.7740    6.6344 O   0  0  0  0  0  0  0  0  0  0  0  0
  -21.7981   10.0358    7.7513 C   0  0  0  0  0  0  0  0  0  0  0  0
  -22.7602    9.1918    8.5776 C   0  0  0  0  0  0  0  0  0  0  0  0
  -23.6277   10.1547    9.3543 C   0  0  0  0  0  0  0  0  0  0  0  0
  -25.0341    9.9608    9.0529 N   0  0  0  0  0  0  0  0  0  0  0  0
  -25.5820   10.5853    7.8981 C   0  0  0  0  0  0  0  0  0  0  0  0
  -25.4469   12.0026    7.7316 N   0  0  0  0  0  0  0  0  0  0  0  0
  -26.2003    9.9072    6.9942 N   0  0  0  0  0  0  0  0  0  0  0  0
  -20.1518   10.8911    5.7430 N   0  0  0  0  0  0  0  0  0  0  0  0
  -19.3636   11.2429    4.5443 C   0  0  2  0  0  0  0  0  0  0  0  0
  -20.1881   12.0230    3.6286 C   0  0  0  0  0  0  0  0  0  0  0  0
  -21.3860   11.6280    3.4419 O   0  0  0  0  0  0  0  0  0  0  0  0
  -18.8181    9.9693    3.9657 C   0  0  0  0  0  0  0  0  0  0  0  0
  -17.6581    9.4828    4.7358 C   0  0  0  0  0  0  0  0  0  0  0  0
  -17.7484    8.3249    5.4636 C   0  0  0  0  0  0  0  0  0  0  0  0
  -16.4341   10.1566    4.7707 C   0  0  0  0  0  0  0  0  0  0  0  0
  -16.6662    7.8486    6.1995 C   0  0  0  0  0  0  0  0  0  0  0  0
  -15.3712    9.6884    5.4939 C   0  0  0  0  0  0  0  0  0  0  0  0
  -15.4595    8.5353    6.2181 C   0  0  0  0  0  0  0  0  0  0  0  0
  -14.3727    8.0558    6.9588 O   0  0  0  0  0  0  0  0  0  0  0  0
  -19.8375   13.1801    2.9023 N   0  0  0  0  0  0  0  0  0  0  0  0
  -20.7183   13.8435    1.9835 C   0  0  2  0  0  0  0  0  0  0  0  0
  -20.2944   13.8518    0.5797 C   0  0  0  0  0  0  0  0  0  0  0  0
  -19.3031   13.2867    0.0904 O   0  0  0  0  0  0  0  0  0  0  0  0
  -20.7484   15.3261    2.4306 C   0  0  0  0  0  0  0  0  0  0  0  0
  -19.6514   16.0306    2.0175 O   0  0  0  0  0  0  0  0  0  0  0  0
  -21.1366   14.6068   -0.3176 N   0  0  0  0  0  0  0  0  0  0  0  0
  -22.1035   13.9003   -1.1664 C   0  0  2  0  0  0  0  0  0  0  0  0
  -23.2175   13.4516   -0.3341 C   0  0  0  0  0  0  0  0  0  0  0  0
  -22.9940   12.8886    0.7210 O   0  0  0  0  0  0  0  0  0  0  0  0
  -21.3076   12.7744   -1.8077 C   0  0  0  0  0  0  0  0  0  0  0  0
  -19.8934   13.1422   -2.1096 C   0  0  0  0  0  0  0  0  0  0  0  0
  -19.1671   12.1140   -2.9277 C   0  0  0  0  0  0  0  0  0  0  0  0
  -19.9946   11.4174   -3.8541 N   0  0  0  0  0  0  0  0  0  0  0  0
  -19.5269   10.4038   -4.7205 C   0  0  0  0  0  0  0  0  0  0  0  0
  -18.1531   10.0875   -4.7363 N   0  0  0  0  0  0  0  0  0  0  0  0
  -20.3240    9.7707   -5.4940 N   0  0  0  0  0  0  0  0  0  0  0  0
  -26.1232    8.8863    6.8561 H   0  0  0  0  0  0  0  0  0  0  0  0
  -21.0297   10.2029   -6.0988 H   0  0  0  0  0  0  0  0  0  0  0  0
  1  2  2  0
  3  1  1  6
  1  4  1  0
  5  4  1  1
  5  6  1  0
  8  5  1  1
  6  7  2  0
  6 15  1  0
  8  9  1  0
  9 10  1  6
 10 11  1  6
 11 12  1  0
 12 13  1  0
 12 14  2  0
 16 15  1  1
 16 17  1  0
 16 19  1  0
 17 18  2  0
 17 27  1  0
 19 20  1  6
 20 21  2  0
 20 22  1  0
 21 23  1  0
 22 24  2  0
 23 25  2  0
 24 25  1  0
 25 26  1  0
 28 27  1  1
 28 29  1  0
 28 31  1  0
 29 30  2  0
 29 33  1  0
 31 32  1  6
 34 33  1  1
 34 35  1  0
 37 34  1  1
 35 36  2  0
 37 38  1  0
 38 39  1  6
 39 40  1  6
 40 41  1  0
 41 42  1  0
 41 43  2  0
 14 44  1  0
 43 45  1  0
M  END
$$$$
