
     RDKit          3D

 45 45  0  0  0  0  0  0  0  0999 V2000
  -15.9492    8.3420   10.5430 C   0  0  0  0  0  0  0  0  0  0  0  0
  -16.1018    7.4455    9.6717 O   0  0  0  0  0  0  0  0  0  0  0  0
  -14.6748    8.3298   11.3075 C   0  0  0  0  0  0  0  0  0  0  0  0
  -16.9192    9.3440   10.8218 N   0  0  0  0  0  0  0  0  0  0  0  0
  -18.1129    9.4251   10.0309 C   0  0  2  0  0  0  0  0  0  0  0  0
  -17.7388    9.8882    8.6677 C   0  0  0  0  0  0  0  0  0  0  0  0
  -16.6271   10.4691    8.4802 O   0  0  0  0  0  0  0  0  0  0  0  0
  -19.0626   10.4625   10.5919 C   0  0  0  0  0  0  0  0  0  0  0  0
  -20.3959   10.4272    9.8559 C   0  0  0  0  0  0  0  0  0  0  0  0
  -21.2224    9.3405   10.5034 C   0  0  0  0  0  0  0  0  0  0  0  0
  -22.3384    9.8964   11.2463 N   0  0  0  0  0  0  0  0  0  0  0  0
  -22.2785   11.2556   11.6617 C   0  0  0  0  0  0  0  0  0  0  0  0
  -21.3743   11.6345   12.7074 N   0  0  0  0  0  0  0  0  0  0  0  0
  -23.0202   12.1592   11.1207 N   0  0  0  0  0  0  0  0  0  0  0  0
  -18.5530    9.7298    7.5157 N   0  0  0  0  0  0  0  0  0  0  0  0
  -18.1523   10.3037    6.2149 C   0  0  2  0  0  0  0  0  0  0  0  0
  -19.3248   10.8451    5.5374 C   0  0  0  0  0  0  0  0  0  0  0  0
  -20.3297   10.0718    5.4032 O   0  0  0  0  0  0  0  0  0  0  0  0
  -17.4234    9.2372    5.4497 C   0  0  0  0  0  0  0  0  0  0  0  0
  -17.0774    9.6926    4.0902 C   0  0  0  0  0  0  0  0  0  0  0  0
  -15.8935   10.3440    3.8601 C   0  0  0  0  0  0  0  0  0  0  0  0
  -17.9141    9.4956    2.9881 C   0  0  0  0  0  0  0  0  0  0  0  0
  -15.5480   10.7844    2.5849 C   0  0  0  0  0  0  0  0  0  0  0  0
  -17.5743    9.9284    1.7355 C   0  0  0  0  0  0  0  0  0  0  0  0
  -16.3956   10.5762    1.5050 C   0  0  0  0  0  0  0  0  0  0  0  0
  -16.0473   11.0200    0.2238 O   0  0  0  0  0  0  0  0  0  0  0  0
  -19.5068   12.1346    4.9957 N   0  0  0  0  0  0  0  0  0  0  0  0
  -20.6351   12.5110    4.1922 C   0  0  2  0  0  0  0  0  0  0  0  0
  -20.4000   12.5789    2.7463 C   0  0  0  0  0  0  0  0  0  0  0  0
  -19.3362   12.8576    2.1700 O   0  0  0  0  0  0  0  0  0  0  0  0
  -21.0012   13.9495    4.6345 C   0  0  0  0  0  0  0  0  0  0  0  0
  -19.9409   14.8114    4.5783 O   0  0  0  0  0  0  0  0  0  0  0  0
  -21.5453   12.2857    1.9177 N   0  0  0  0  0  0  0  0  0  0  0  0
  -21.4364   12.4230    0.4604 C   0  0  2  0  0  0  0  0  0  0  0  0
  -21.1969   13.8280    0.1387 C   0  0  0  0  0  0  0  0  0  0  0  0
  -21.1798   14.1866   -1.0237 O   0  0  0  0  0  0  0  0  0  0  0  0
  -22.7460   11.8710   -0.0808 C   0  0  0  0  0  0  0  0  0  0  0  0
  -23.3752   10.8518    0.8091 C   0  0  0  0  0  0  0  0  0  0  0  0
  -24.6688   10.3067    0.2768 C   0  0  0  0  0  0  0  0  0  0  0  0
  -25.2584    9.3029    1.0972 N   0  0  0  0  0  0  0  0  0  0  0  0
  -26.4113    8.5690    0.7379 C   0  0  0  0  0  0  0  0  0  0  0  0
  -26.9947    8.7745   -0.5290 N   0  0  0  0  0  0  0  0  0  0  0  0
  -26.9389    7.7254    1.5407 N   0  0  0  0  0  0  0  0  0  0  0  0
  -23.7744   11.9824   10.4372 H   0  0  0  0  0  0  0  0  0  0  0  0
  -26.5784    7.4875    2.4702 H   0  0  0  0  0  0  0  0  0  0  0  0
  1  2  2  0
  3  1  1  6
  1  4  1  0
  5  4  1  1
  5  6  1  0
  8  5  1  1
  6  7  2  0
  6 15  1  0
  8  9  1  0
  9 10  1  6
 10 11  1  6
 11 12  1  0
 12 13  1  0
 12 14  2  0
 16 15  1  1
 16 17  1  0
 16 19  1  0
 17 18  2  0
 17 27  1  0
 19 20  1  6
 20 21  2  0
 20 22  1  0
 21 23  1  0
 22 24  2  0
 23 25  2  0
 24 25  1  0
 25 26  1  0
 28 27  1  1
 28 29  1  0
 28 31  1  0
 29 30  2  0
 29 33  1  0
 31 32  1  6
 34 33  1  1
 34 35  1  0
 37 34  1  1
 35 36  2  0
 37 38  1  0
 38 39  1  6
 39 40  1  6
 40 41  1  0
 41 42  1  0
 41 43  2  0
 14 44  1  0
 43 45  1  0
M  END
$$$$
