
     RDKit          3D

 45 45  0  0  0  0  0  0  0  0999 V2000
  -26.0894   15.2484    4.9717 C   0  0  0  0  0  0  0  0  0  0  0  0
  -25.4560   15.9338    5.8173 O   0  0  0  0  0  0  0  0  0  0  0  0
  -27.4525   15.7163    4.6088 C   0  0  0  0  0  0  0  0  0  0  0  0
  -25.5706   14.0735    4.3608 N   0  0  0  0  0  0  0  0  0  0  0  0
  -24.7583   13.1693    5.1221 C   0  0  2  0  0  0  0  0  0  0  0  0
  -23.4762   12.9689    4.3949 C   0  0  0  0  0  0  0  0  0  0  0  0
  -23.4878   12.5681    3.1917 O   0  0  0  0  0  0  0  0  0  0  0  0
  -25.4137   11.8079    5.2215 C   0  0  0  0  0  0  0  0  0  0  0  0
  -24.6670   10.9205    6.2091 C   0  0  0  0  0  0  0  0  0  0  0  0
  -24.9377    9.4910    5.8013 C   0  0  0  0  0  0  0  0  0  0  0  0
  -26.1572    9.3853    5.0216 N   0  0  0  0  0  0  0  0  0  0  0  0
  -26.0757    8.9292    3.6766 C   0  0  0  0  0  0  0  0  0  0  0  0
  -25.3002    7.7625    3.3732 N   0  0  0  0  0  0  0  0  0  0  0  0
  -26.6826    9.5411    2.7193 N   0  0  0  0  0  0  0  0  0  0  0  0
  -22.1922   13.1958    4.9563 N   0  0  0  0  0  0  0  0  0  0  0  0
  -20.9639   12.8433    4.2154 C   0  0  2  0  0  0  0  0  0  0  0  0
  -20.7473   11.4028    4.2852 C   0  0  0  0  0  0  0  0  0  0  0  0
  -21.3180   10.7726    5.2354 O   0  0  0  0  0  0  0  0  0  0  0  0
  -19.8418   13.6730    4.7695 C   0  0  0  0  0  0  0  0  0  0  0  0
  -18.5941   13.4646    4.0111 C   0  0  0  0  0  0  0  0  0  0  0  0
  -17.3972   13.9010    4.5167 C   0  0  0  0  0  0  0  0  0  0  0  0
  -18.5600   12.8309    2.7658 C   0  0  0  0  0  0  0  0  0  0  0  0
  -16.2075   13.7165    3.8165 C   0  0  0  0  0  0  0  0  0  0  0  0
  -17.3911   12.6500    2.0782 C   0  0  0  0  0  0  0  0  0  0  0  0
  -16.1987   13.0831    2.5808 C   0  0  0  0  0  0  0  0  0  0  0  0
  -15.0023   12.8990    1.8778 O   0  0  0  0  0  0  0  0  0  0  0  0
  -19.9755   10.5898    3.4292 N   0  0  0  0  0  0  0  0  0  0  0  0
  -19.4714    9.2969    3.7961 C   0  0  2  0  0  0  0  0  0  0  0  0
  -18.0768    9.2557    4.2476 C   0  0  0  0  0  0  0  0  0  0  0  0
  -17.1433    9.9831    3.8722 O   0  0  0  0  0  0  0  0  0  0  0  0
  -19.5287    8.4445    2.5042 C   0  0  0  0  0  0  0  0  0  0  0  0
  -20.8038    8.1057    2.1443 O   0  0  0  0  0  0  0  0  0  0  0  0
  -17.7758    8.2505    5.2392 N   0  0  0  0  0  0  0  0  0  0  0  0
  -16.4489    8.2293    5.8664 C   0  0  2  0  0  0  0  0  0  0  0  0
  -16.0299    6.8391    6.0297 C   0  0  0  0  0  0  0  0  0  0  0  0
  -16.8566    5.9869    6.2954 O   0  0  0  0  0  0  0  0  0  0  0  0
  -16.6244    8.9882    7.1725 C   0  0  0  0  0  0  0  0  0  0  0  0
  -15.4120    8.9644    8.0421 C   0  0  0  0  0  0  0  0  0  0  0  0
  -14.1706    9.4548    7.3550 C   0  0  0  0  0  0  0  0  0  0  0  0
  -13.9087   10.8415    7.5469 N   0  0  0  0  0  0  0  0  0  0  0  0
  -12.8058   11.3412    8.2755 C   0  0  0  0  0  0  0  0  0  0  0  0
  -12.7584   12.7112    8.6049 N   0  0  0  0  0  0  0  0  0  0  0  0
  -11.8475   10.5766    8.6380 N   0  0  0  0  0  0  0  0  0  0  0  0
  -27.1045   10.4818    2.7843 H   0  0  0  0  0  0  0  0  0  0  0  0
  -11.8129    9.5623    8.4947 H   0  0  0  0  0  0  0  0  0  0  0  0
  1  2  2  0
  3  1  1  6
  1  4  1  0
  5  4  1  6
  5  6  1  0
  8  5  1  1
  6  7  2  0
  6 15  1  0
  8  9  1  0
  9 10  1  6
 10 11  1  6
 11 12  1  0
 12 13  1  0
 12 14  2  0
 16 15  1  1
 16 17  1  0
 16 19  1  0
 17 18  2  0
 17 27  1  0
 19 20  1  6
 20 21  2  0
 20 22  1  0
 21 23  1  0
 22 24  2  0
 23 25  2  0
 24 25  1  0
 25 26  1  0
 28 27  1  6
 28 29  1  0
 28 31  1  0
 29 30  2  0
 29 33  1  0
 31 32  1  6
 34 33  1  1
 34 35  1  0
 37 34  1  1
 35 36  2  0
 37 38  1  0
 38 39  1  6
 39 40  1  6
 40 41  1  0
 41 42  1  0
 41 43  2  0
 14 44  1  0
 43 45  1  0
M  END
$$$$
