
     RDKit          3D

 45 45  0  0  0  0  0  0  0  0999 V2000
  -24.5309    9.0869    5.7916 C   0  0  0  0  0  0  0  0  0  0  0  0
  -25.4186    8.2868    5.5077 O   0  0  0  0  0  0  0  0  0  0  0  0
  -24.7045   10.5326    5.3796 C   0  0  0  0  0  0  0  0  0  0  0  0
  -23.3303    8.7892    6.4819 N   0  0  0  0  0  0  0  0  0  0  0  0
  -22.9165    9.5141    7.6385 C   0  0  2  0  0  0  0  0  0  0  0  0
  -21.6157   10.1550    7.4149 C   0  0  0  0  0  0  0  0  0  0  0  0
  -21.1971   11.1009    8.1775 O   0  0  0  0  0  0  0  0  0  0  0  0
  -23.0230    8.7396    8.8910 C   0  0  0  0  0  0  0  0  0  0  0  0
  -21.8657    8.9077    9.8064 C   0  0  0  0  0  0  0  0  0  0  0  0
  -21.8347    8.1739   11.0897 C   0  0  0  0  0  0  0  0  0  0  0  0
  -21.1000    8.9449   12.1126 N   0  0  0  0  0  0  0  0  0  0  0  0
  -19.9293    8.3818   12.6626 C   0  0  0  0  0  0  0  0  0  0  0  0
  -19.8056    6.9731   12.7291 N   0  0  0  0  0  0  0  0  0  0  0  0
  -18.9662    9.1517   13.1092 N   0  0  0  0  0  0  0  0  0  0  0  0
  -20.7612    9.7703    6.3500 N   0  0  0  0  0  0  0  0  0  0  0  0
  -19.4924   10.4401    6.1345 C   0  0  2  0  0  0  0  0  0  0  0  0
  -19.7027   11.7927    5.4931 C   0  0  0  0  0  0  0  0  0  0  0  0
  -20.6717   12.0982    4.7968 O   0  0  0  0  0  0  0  0  0  0  0  0
  -18.6186    9.6622    5.2282 C   0  0  0  0  0  0  0  0  0  0  0  0
  -18.9483    9.6303    3.8138 C   0  0  0  0  0  0  0  0  0  0  0  0
  -19.9351    8.8295    3.3233 C   0  0  0  0  0  0  0  0  0  0  0  0
  -18.2337   10.4152    2.9227 C   0  0  0  0  0  0  0  0  0  0  0  0
  -20.2283    8.7920    1.9627 C   0  0  0  0  0  0  0  0  0  0  0  0
  -18.5191   10.3859    1.5572 C   0  0  0  0  0  0  0  0  0  0  0  0
  -19.5143    9.5791    1.0572 C   0  0  0  0  0  0  0  0  0  0  0  0
  -19.8237    9.5227   -0.2934 O   0  0  0  0  0  0  0  0  0  0  0  0
  -18.6859   12.7716    5.7311 N   0  0  0  0  0  0  0  0  0  0  0  0
  -18.7751   14.1526    5.3437 C   0  0  2  0  0  0  0  0  0  0  0  0
  -18.6024   14.3435    3.8881 C   0  0  0  0  0  0  0  0  0  0  0  0
  -17.4383   14.1057    3.4133 O   0  0  0  0  0  0  0  0  0  0  0  0
  -17.7175   14.9803    6.0995 C   0  0  0  0  0  0  0  0  0  0  0  0
  -16.4861   14.4604    5.7790 O   0  0  0  0  0  0  0  0  0  0  0  0
  -19.5824   14.7620    2.9773 N   0  0  0  0  0  0  0  0  0  0  0  0
  -19.2839   15.3668    1.6734 C   0  0  2  0  0  0  0  0  0  0  0  0
  -20.1374   16.5281    1.4753 C   0  0  0  0  0  0  0  0  0  0  0  0
  -19.7917   17.6531    1.2102 O   0  0  0  0  0  0  0  0  0  0  0  0
  -19.2194   14.3801    0.5636 C   0  0  0  0  0  0  0  0  0  0  0  0
  -19.0049   12.9799    1.0654 C   0  0  0  0  0  0  0  0  0  0  0  0
  -19.3561   11.9322    0.0355 C   0  0  0  0  0  0  0  0  0  0  0  0
  -18.8526   12.3131   -1.2682 N   0  0  0  0  0  0  0  0  0  0  0  0
  -17.6674   11.7374   -1.7972 C   0  0  0  0  0  0  0  0  0  0  0  0
  -17.0264   12.3792   -2.9214 N   0  0  0  0  0  0  0  0  0  0  0  0
  -17.1566   10.6736   -1.3058 N   0  0  0  0  0  0  0  0  0  0  0  0
  -18.9617    9.3606   14.1235 H   0  0  0  0  0  0  0  0  0  0  0  0
  -17.6719   10.1296   -0.5976 H   0  0  0  0  0  0  0  0  0  0  0  0
  1  2  2  0
  1  3  1  0
  1  4  1  0
  4  5  1  0
  5  6  1  0
  5  8  1  1
  6  7  2  0
  6 15  1  0
  8  9  1  0
  9 10  1  0
 10 11  1  0
 11 12  1  0
 12 13  1  0
 12 14  2  0
 15 16  1  0
 16 17  1  0
 16 19  1  6
 17 18  2  0
 17 27  1  0
 19 20  1  0
 20 21  2  0
 20 22  1  0
 21 23  1  0
 22 24  2  0
 23 25  2  0
 24 25  1  0
 25 26  1  0
 27 28  1  0
 28 29  1  0
 28 31  1  1
 29 30  2  0
 29 33  1  0
 31 32  1  0
 33 34  1  0
 34 35  1  0
 34 37  1  6
 35 36  2  0
 37 38  1  0
 38 39  1  0
 39 40  1  0
 40 41  1  0
 41 42  1  0
 41 43  2  0
 14 44  1  0
 43 45  1  0
M  END
$$$$
