
     RDKit          3D

 45 45  0  0  0  0  0  0  0  0999 V2000
  -15.3360   10.1572   11.1971 C   0  0  0  0  0  0  0  0  0  0  0  0
  -15.0930    9.0063   10.7470 O   0  0  0  0  0  0  0  0  0  0  0  0
  -14.3171   10.7586   12.0966 C   0  0  0  0  0  0  0  0  0  0  0  0
  -16.5144   10.8917   10.8898 N   0  0  0  0  0  0  0  0  0  0  0  0
  -17.5769   10.2670   10.1566 C   0  0  2  0  0  0  0  0  0  0  0  0
  -17.6425   10.8907    8.8077 C   0  0  0  0  0  0  0  0  0  0  0  0
  -18.1417   12.0484    8.6700 O   0  0  0  0  0  0  0  0  0  0  0  0
  -18.9145   10.5282   10.8166 C   0  0  0  0  0  0  0  0  0  0  0  0
  -19.2861    9.3857   11.7532 C   0  0  0  0  0  0  0  0  0  0  0  0
  -20.3764    8.5965   11.0664 C   0  0  0  0  0  0  0  0  0  0  0  0
  -21.5521    9.4139   10.8297 N   0  0  0  0  0  0  0  0  0  0  0  0
  -22.7132    8.8044   10.2784 C   0  0  0  0  0  0  0  0  0  0  0  0
  -22.6886    7.4097    9.9484 N   0  0  0  0  0  0  0  0  0  0  0  0
  -23.7912    9.4767   10.0659 N   0  0  0  0  0  0  0  0  0  0  0  0
  -17.1768   10.2750    7.6164 N   0  0  0  0  0  0  0  0  0  0  0  0
  -17.3825   10.9115    6.2993 C   0  0  2  0  0  0  0  0  0  0  0  0
  -18.6032   10.3942    5.6916 C   0  0  0  0  0  0  0  0  0  0  0  0
  -19.3005    9.5819    6.3842 O   0  0  0  0  0  0  0  0  0  0  0  0
  -16.1381   10.6950    5.4875 C   0  0  0  0  0  0  0  0  0  0  0  0
  -15.8657    9.2585    5.2943 C   0  0  0  0  0  0  0  0  0  0  0  0
  -16.2776    8.6248    4.1508 C   0  0  0  0  0  0  0  0  0  0  0  0
  -15.1937    8.4797    6.2406 C   0  0  0  0  0  0  0  0  0  0  0  0
  -16.0327    7.2687    3.9489 C   0  0  0  0  0  0  0  0  0  0  0  0
  -14.9535    7.1475    6.0419 C   0  0  0  0  0  0  0  0  0  0  0  0
  -15.3621    6.5157    4.9036 C   0  0  0  0  0  0  0  0  0  0  0  0
  -15.1173    5.1525    4.6996 O   0  0  0  0  0  0  0  0  0  0  0  0
  -19.1325   10.6723    4.4142 N   0  0  0  0  0  0  0  0  0  0  0  0
  -20.2876   10.0176    3.8689 C   0  0  2  0  0  0  0  0  0  0  0  0
  -20.6109   10.3403    2.4754 C   0  0  0  0  0  0  0  0  0  0  0  0
  -19.8442   10.3095    1.4994 O   0  0  0  0  0  0  0  0  0  0  0  0
  -21.4870   10.5155    4.7131 C   0  0  0  0  0  0  0  0  0  0  0  0
  -21.6990   11.8616    4.5973 O   0  0  0  0  0  0  0  0  0  0  0  0
  -21.9779   10.7357    2.2319 N   0  0  0  0  0  0  0  0  0  0  0  0
  -22.3527   11.2656    0.9154 C   0  0  2  0  0  0  0  0  0  0  0  0
  -22.0243   12.6887    0.8723 C   0  0  0  0  0  0  0  0  0  0  0  0
  -21.2363   13.1014    0.0422 O   0  0  0  0  0  0  0  0  0  0  0  0
  -23.8366   10.9609    0.7821 C   0  0  0  0  0  0  0  0  0  0  0  0
  -24.6868   11.7046    1.7572 C   0  0  0  0  0  0  0  0  0  0  0  0
  -26.0130   11.0510    2.0181 C   0  0  0  0  0  0  0  0  0  0  0  0
  -26.4631   10.2071    0.9628 N   0  0  0  0  0  0  0  0  0  0  0  0
  -27.6174    9.3956    1.0412 C   0  0  0  0  0  0  0  0  0  0  0  0
  -28.4496    9.4851    2.1756 N   0  0  0  0  0  0  0  0  0  0  0  0
  -27.9197    8.5782    0.1059 N   0  0  0  0  0  0  0  0  0  0  0  0
  -23.9152   10.4837   10.2602 H   0  0  0  0  0  0  0  0  0  0  0  0
  -28.6907    7.9036    0.1356 H   0  0  0  0  0  0  0  0  0  0  0  0
  1  2  2  0
  3  1  1  6
  1  4  1  0
  5  4  1  1
  5  6  1  0
  8  5  1  1
  6  7  2  0
  6 15  1  0
  8  9  1  0
  9 10  1  6
 10 11  1  6
 11 12  1  0
 12 13  1  0
 12 14  2  0
 16 15  1  1
 16 17  1  0
 16 19  1  0
 17 18  2  0
 17 27  1  0
 19 20  1  6
 20 21  2  0
 20 22  1  0
 21 23  1  0
 22 24  2  0
 23 25  2  0
 24 25  1  0
 25 26  1  0
 28 27  1  1
 28 29  1  0
 28 31  1  0
 29 30  2  0
 29 33  1  0
 31 32  1  6
 34 33  1  1
 34 35  1  0
 37 34  1  1
 35 36  2  0
 37 38  1  0
 38 39  1  6
 39 40  1  6
 40 41  1  0
 41 42  1  0
 41 43  2  0
 14 44  1  0
 43 45  1  0
M  END
$$$$
