
     RDKit          3D

 45 45  0  0  0  0  0  0  0  0999 V2000
  -22.5552   10.1679    9.9883 C   0  0  0  0  0  0  0  0  0  0  0  0
  -22.4383   11.3787   10.1580 O   0  0  0  0  0  0  0  0  0  0  0  0
  -23.9137    9.6211    9.6072 C   0  0  0  0  0  0  0  0  0  0  0  0
  -21.5240    9.2052   10.1161 N   0  0  0  0  0  0  0  0  0  0  0  0
  -20.1867    9.5621   10.4606 C   0  0  2  0  0  0  0  0  0  0  0  0
  -19.5002   10.1772    9.3189 C   0  0  0  0  0  0  0  0  0  0  0  0
  -18.9470   11.3330    9.4156 O   0  0  0  0  0  0  0  0  0  0  0  0
  -19.4386    8.4780   11.1276 C   0  0  0  0  0  0  0  0  0  0  0  0
  -18.0229    8.8139   11.4248 C   0  0  0  0  0  0  0  0  0  0  0  0
  -16.9479    8.2884   10.5560 C   0  0  0  0  0  0  0  0  0  0  0  0
  -15.6207    8.6101   11.1179 N   0  0  0  0  0  0  0  0  0  0  0  0
  -15.1342    9.9265   10.9743 C   0  0  0  0  0  0  0  0  0  0  0  0
  -15.7407   10.7878   10.0286 N   0  0  0  0  0  0  0  0  0  0  0  0
  -14.1311   10.3493   11.7056 N   0  0  0  0  0  0  0  0  0  0  0  0
  -19.4168    9.5348    8.0569 N   0  0  0  0  0  0  0  0  0  0  0  0
  -19.0475   10.2776    6.8665 C   0  0  2  0  0  0  0  0  0  0  0  0
  -20.2475   10.4857    5.9710 C   0  0  0  0  0  0  0  0  0  0  0  0
  -21.2716    9.8019    5.9969 O   0  0  0  0  0  0  0  0  0  0  0  0
  -18.0335    9.5513    6.0701 C   0  0  0  0  0  0  0  0  0  0  0  0
  -18.2347    9.4406    4.6358 C   0  0  0  0  0  0  0  0  0  0  0  0
  -17.4491   10.1088    3.7458 C   0  0  0  0  0  0  0  0  0  0  0  0
  -19.2641    8.6538    4.1438 C   0  0  0  0  0  0  0  0  0  0  0  0
  -17.6646   10.0112    2.3737 C   0  0  0  0  0  0  0  0  0  0  0  0
  -19.4891    8.5484    2.7709 C   0  0  0  0  0  0  0  0  0  0  0  0
  -18.6988    9.2210    1.8684 C   0  0  0  0  0  0  0  0  0  0  0  0
  -18.8945    9.1415    0.4979 O   0  0  0  0  0  0  0  0  0  0  0  0
  -20.1600   11.5650    5.0351 N   0  0  0  0  0  0  0  0  0  0  0  0
  -21.2652   12.0753    4.2712 C   0  0  2  0  0  0  0  0  0  0  0  0
  -20.8474   13.0919    3.2828 C   0  0  0  0  0  0  0  0  0  0  0  0
  -20.5656   14.2533    3.7398 O   0  0  0  0  0  0  0  0  0  0  0  0
  -22.3223   12.6806    5.2153 C   0  0  0  0  0  0  0  0  0  0  0  0
  -23.3593   13.1300    4.4331 O   0  0  0  0  0  0  0  0  0  0  0  0
  -20.7328   12.9137    1.8971 N   0  0  0  0  0  0  0  0  0  0  0  0
  -20.3015   13.9660    0.9688 C   0  0  2  0  0  0  0  0  0  0  0  0
  -21.3333   14.9885    0.8882 C   0  0  0  0  0  0  0  0  0  0  0  0
  -22.4085   14.9015    0.3483 O   0  0  0  0  0  0  0  0  0  0  0  0
  -19.7704   13.4412   -0.3163 C   0  0  0  0  0  0  0  0  0  0  0  0
  -18.4747   12.7024   -0.1316 C   0  0  0  0  0  0  0  0  0  0  0  0
  -17.2814   13.6265   -0.0694 C   0  0  0  0  0  0  0  0  0  0  0  0
  -16.8888   14.0389   -1.4013 N   0  0  0  0  0  0  0  0  0  0  0  0
  -15.9114   13.3187   -2.1375 C   0  0  0  0  0  0  0  0  0  0  0  0
  -15.9791   11.8759   -2.1537 N   0  0  0  0  0  0  0  0  0  0  0  0
  -14.9807   13.9114   -2.7828 N   0  0  0  0  0  0  0  0  0  0  0  0
  -13.6684    9.6542   12.3181 H   0  0  0  0  0  0  0  0  0  0  0  0
  -14.8873   14.9371   -2.7343 H   0  0  0  0  0  0  0  0  0  0  0  0
  1  2  2  0
  1  3  1  0
  1  4  1  0
  4  5  1  0
  5  6  1  0
  5  8  1  6
  6  7  2  0
  6 15  1  0
  8  9  1  0
  9 10  1  0
 10 11  1  0
 11 12  1  0
 12 13  1  0
 12 14  2  0
 15 16  1  0
 16 17  1  0
 16 19  1  6
 17 18  2  0
 17 27  1  0
 19 20  1  0
 20 21  2  0
 20 22  1  0
 21 23  1  0
 22 24  2  0
 23 25  2  0
 24 25  1  0
 25 26  1  0
 27 28  1  0
 28 29  1  0
 28 31  1  1
 29 30  2  0
 29 33  1  0
 31 32  1  0
 33 34  1  0
 34 35  1  0
 34 37  1  6
 35 36  2  0
 37 38  1  0
 38 39  1  0
 39 40  1  0
 40 41  1  0
 41 42  1  0
 41 43  2  0
 14 44  1  0
 43 45  1  0
M  END
$$$$
