
     RDKit          3D

 45 45  0  0  0  0  0  0  0  0999 V2000
  -17.6523   12.7389   11.4775 C   0  0  0  0  0  0  0  0  0  0  0  0
  -18.2980   12.3994   12.5040 O   0  0  0  0  0  0  0  0  0  0  0  0
  -17.5256   14.1956   11.2113 C   0  0  0  0  0  0  0  0  0  0  0  0
  -17.0511   11.8123   10.5816 N   0  0  0  0  0  0  0  0  0  0  0  0
  -17.8231   11.2427    9.5156 C   0  0  2  0  0  0  0  0  0  0  0  0
  -17.8190   12.1975    8.3749 C   0  0  0  0  0  0  0  0  0  0  0  0
  -18.3765   13.3302    8.4965 O   0  0  0  0  0  0  0  0  0  0  0  0
  -19.2700   11.0720    9.9283 C   0  0  0  0  0  0  0  0  0  0  0  0
  -19.4660    9.7601   10.6773 C   0  0  0  0  0  0  0  0  0  0  0  0
  -19.6358    8.6826    9.6316 C   0  0  0  0  0  0  0  0  0  0  0  0
  -21.0345    8.3440    9.4432 N   0  0  0  0  0  0  0  0  0  0  0  0
  -21.4128    6.9728    9.4224 C   0  0  0  0  0  0  0  0  0  0  0  0
  -20.5766    6.0204    8.7529 N   0  0  0  0  0  0  0  0  0  0  0  0
  -22.4933    6.5629    9.9913 N   0  0  0  0  0  0  0  0  0  0  0  0
  -17.2221   11.9370    7.1136 N   0  0  0  0  0  0  0  0  0  0  0  0
  -17.5993   12.7165    5.9168 C   0  0  2  0  0  0  0  0  0  0  0  0
  -18.9700   12.3955    5.5362 C   0  0  0  0  0  0  0  0  0  0  0  0
  -19.5533   11.4664    6.1861 O   0  0  0  0  0  0  0  0  0  0  0  0
  -16.5742   12.4463    4.8535 C   0  0  0  0  0  0  0  0  0  0  0  0
  -16.0169   11.0865    4.9774 C   0  0  0  0  0  0  0  0  0  0  0  0
  -14.8872   10.8680    5.7224 C   0  0  0  0  0  0  0  0  0  0  0  0
  -16.5894    9.9724    4.3572 C   0  0  0  0  0  0  0  0  0  0  0  0
  -14.3429    9.5925    5.8510 C   0  0  0  0  0  0  0  0  0  0  0  0
  -16.0542    8.7196    4.4837 C   0  0  0  0  0  0  0  0  0  0  0  0
  -14.9303    8.5006    5.2258 C   0  0  0  0  0  0  0  0  0  0  0  0
  -14.3817    7.2192    5.3554 O   0  0  0  0  0  0  0  0  0  0  0  0
  -19.7593   12.9818    4.5250 N   0  0  0  0  0  0  0  0  0  0  0  0
  -21.1362   12.6491    4.2933 C   0  0  2  0  0  0  0  0  0  0  0  0
  -21.3801   11.4708    3.4551 C   0  0  0  0  0  0  0  0  0  0  0  0
  -21.1924   10.2814    3.7574 O   0  0  0  0  0  0  0  0  0  0  0  0
  -21.7327   13.8534    3.5233 C   0  0  0  0  0  0  0  0  0  0  0  0
  -21.2434   15.0564    3.9518 O   0  0  0  0  0  0  0  0  0  0  0  0
  -21.8958   11.7454    2.1349 N   0  0  0  0  0  0  0  0  0  0  0  0
  -21.1628   11.2627    0.9584 C   0  0  2  0  0  0  0  0  0  0  0  0
  -19.8715   11.9438    0.8988 C   0  0  0  0  0  0  0  0  0  0  0  0
  -19.7207   13.0031    1.4779 O   0  0  0  0  0  0  0  0  0  0  0  0
  -22.0805   11.5557   -0.2183 C   0  0  0  0  0  0  0  0  0  0  0  0
  -23.3554   12.2248    0.1734 C   0  0  0  0  0  0  0  0  0  0  0  0
  -24.3294   12.3711   -0.9596 C   0  0  0  0  0  0  0  0  0  0  0  0
  -23.8837   13.2332   -2.0020 N   0  0  0  0  0  0  0  0  0  0  0  0
  -24.4177   14.5193   -2.2427 C   0  0  0  0  0  0  0  0  0  0  0  0
  -25.1901   15.1453   -1.2433 N   0  0  0  0  0  0  0  0  0  0  0  0
  -24.2182   15.1247   -3.3509 N   0  0  0  0  0  0  0  0  0  0  0  0
  -23.3828    7.0868   10.0320 H   0  0  0  0  0  0  0  0  0  0  0  0
  -24.4952   14.7761   -4.2741 H   0  0  0  0  0  0  0  0  0  0  0  0
  1  2  2  0
  3  1  1  6
  1  4  1  0
  5  4  1  1
  5  6  1  0
  8  5  1  1
  6  7  2  0
  6 15  1  0
  8  9  1  0
  9 10  1  6
 10 11  1  6
 11 12  1  0
 12 13  1  0
 12 14  2  0
 16 15  1  1
 16 17  1  0
 16 19  1  0
 17 18  2  0
 17 27  1  0
 19 20  1  6
 20 21  2  0
 20 22  1  0
 21 23  1  0
 22 24  2  0
 23 25  2  0
 24 25  1  0
 25 26  1  0
 28 27  1  6
 28 29  1  0
 28 31  1  0
 29 30  2  0
 29 33  1  0
 31 32  1  6
 34 33  1  1
 34 35  1  0
 37 34  1  1
 35 36  2  0
 37 38  1  0
 38 39  1  6
 39 40  1  6
 40 41  1  0
 41 42  1  0
 41 43  2  0
 14 44  1  0
 43 45  1  0
M  END
$$$$
