
     RDKit          3D

 45 45  0  0  0  0  0  0  0  0999 V2000
  -17.0331    8.8635    9.7787 C   0  0  0  0  0  0  0  0  0  0  0  0
  -17.3093    7.8478    9.0872 O   0  0  0  0  0  0  0  0  0  0  0  0
  -15.8137    8.7920   10.6254 C   0  0  0  0  0  0  0  0  0  0  0  0
  -17.8172   10.0500    9.7853 N   0  0  0  0  0  0  0  0  0  0  0  0
  -18.9472   10.1667    8.9100 C   0  0  2  0  0  0  0  0  0  0  0  0
  -18.4711   10.6880    7.6006 C   0  0  0  0  0  0  0  0  0  0  0  0
  -17.6693   11.6700    7.5648 O   0  0  0  0  0  0  0  0  0  0  0  0
  -19.9392   11.1799    9.4412 C   0  0  0  0  0  0  0  0  0  0  0  0
  -21.1713   11.2480    8.5480 C   0  0  0  0  0  0  0  0  0  0  0  0
  -22.2973   10.5862    9.3079 C   0  0  0  0  0  0  0  0  0  0  0  0
  -22.6453   11.3386   10.4993 N   0  0  0  0  0  0  0  0  0  0  0  0
  -23.7368   12.2492   10.4426 C   0  0  0  0  0  0  0  0  0  0  0  0
  -23.5566   13.5287    9.8222 N   0  0  0  0  0  0  0  0  0  0  0  0
  -24.8884   11.9528   10.9379 N   0  0  0  0  0  0  0  0  0  0  0  0
  -18.8544   10.1593    6.3401 N   0  0  0  0  0  0  0  0  0  0  0  0
  -18.2937   10.7001    5.0850 C   0  0  2  0  0  0  0  0  0  0  0  0
  -19.3562   11.3208    4.3023 C   0  0  0  0  0  0  0  0  0  0  0  0
  -20.5578   11.0585    4.6389 O   0  0  0  0  0  0  0  0  0  0  0  0
  -17.5727    9.5828    4.3876 C   0  0  0  0  0  0  0  0  0  0  0  0
  -16.3168    9.2388    5.0800 C   0  0  0  0  0  0  0  0  0  0  0  0
  -16.2660    8.1591    5.9230 C   0  0  0  0  0  0  0  0  0  0  0  0
  -15.1387    9.9745    4.9247 C   0  0  0  0  0  0  0  0  0  0  0  0
  -15.0912    7.8177    6.5885 C   0  0  0  0  0  0  0  0  0  0  0  0
  -13.9848    9.6389    5.5789 C   0  0  0  0  0  0  0  0  0  0  0  0
  -13.9326    8.5638    6.4176 C   0  0  0  0  0  0  0  0  0  0  0  0
  -12.7526    8.2199    7.0877 O   0  0  0  0  0  0  0  0  0  0  0  0
  -19.2382   12.1902    3.1980 N   0  0  0  0  0  0  0  0  0  0  0  0
  -20.3493   12.6178    2.3962 C   0  0  2  0  0  0  0  0  0  0  0  0
  -20.5918   11.8481    1.1718 C   0  0  0  0  0  0  0  0  0  0  0  0
  -20.0212   10.8051    0.8142 O   0  0  0  0  0  0  0  0  0  0  0  0
  -20.0034   14.0559    1.9366 C   0  0  0  0  0  0  0  0  0  0  0  0
  -18.7859   14.1407    1.3195 O   0  0  0  0  0  0  0  0  0  0  0  0
  -21.6114   12.3784    0.2980 N   0  0  0  0  0  0  0  0  0  0  0  0
  -22.0572   11.5873   -0.8551 C   0  0  2  0  0  0  0  0  0  0  0  0
  -22.3708   10.2341   -0.4019 C   0  0  0  0  0  0  0  0  0  0  0  0
  -22.6378    9.3713   -1.2171 O   0  0  0  0  0  0  0  0  0  0  0  0
  -20.9073   11.6648   -1.8473 C   0  0  0  0  0  0  0  0  0  0  0  0
  -20.9836   12.8463   -2.7555 C   0  0  0  0  0  0  0  0  0  0  0  0
  -22.2434   12.8968   -3.5704 C   0  0  0  0  0  0  0  0  0  0  0  0
  -22.8632   14.1787   -3.6042 N   0  0  0  0  0  0  0  0  0  0  0  0
  -24.0266   14.4715   -4.3510 C   0  0  0  0  0  0  0  0  0  0  0  0
  -24.9577   13.4453   -4.6111 N   0  0  0  0  0  0  0  0  0  0  0  0
  -24.2497   15.6477   -4.7996 N   0  0  0  0  0  0  0  0  0  0  0  0
  -25.2376   10.9953   11.1066 H   0  0  0  0  0  0  0  0  0  0  0  0
  -23.6281   16.4540   -4.6813 H   0  0  0  0  0  0  0  0  0  0  0  0
  1  2  2  0
  3  1  1  6
  1  4  1  0
  5  4  1  1
  5  6  1  0
  8  5  1  1
  6  7  2  0
  6 15  1  0
  8  9  1  0
  9 10  1  6
 10 11  1  6
 11 12  1  0
 12 13  1  0
 12 14  2  0
 16 15  1  1
 16 17  1  0
 16 19  1  0
 17 18  2  0
 17 27  1  0
 19 20  1  6
 20 21  2  0
 20 22  1  0
 21 23  1  0
 22 24  2  0
 23 25  2  0
 24 25  1  0
 25 26  1  0
 28 27  1  6
 28 29  1  0
 28 31  1  0
 29 30  2  0
 29 33  1  0
 31 32  1  6
 34 33  1  1
 34 35  1  0
 37 34  1  1
 35 36  2  0
 37 38  1  0
 38 39  1  6
 39 40  1  6
 40 41  1  0
 41 42  1  0
 41 43  2  0
 14 44  1  0
 43 45  1  0
M  END
$$$$
