
     RDKit          3D

 45 45  0  0  0  0  0  0  0  0999 V2000
  -21.7549    9.0596    5.3682 C   0  0  0  0  0  0  0  0  0  0  0  0
  -21.2955    9.0821    4.2293 O   0  0  0  0  0  0  0  0  0  0  0  0
  -21.9659    7.7173    6.0342 C   0  0  0  0  0  0  0  0  0  0  0  0
  -22.1175   10.1887    6.1429 N   0  0  0  0  0  0  0  0  0  0  0  0
  -21.1551   10.9691    6.8494 C   0  0  2  0  0  0  0  0  0  0  0  0
  -20.1899   11.5714    5.9228 C   0  0  0  0  0  0  0  0  0  0  0  0
  -20.1139   12.8454    5.7722 O   0  0  0  0  0  0  0  0  0  0  0  0
  -20.5577   10.2681    8.0033 C   0  0  0  0  0  0  0  0  0  0  0  0
  -21.5530    9.7139    8.9560 C   0  0  0  0  0  0  0  0  0  0  0  0
  -22.1172   10.5812   10.0124 C   0  0  0  0  0  0  0  0  0  0  0  0
  -21.6222   10.1712   11.3418 N   0  0  0  0  0  0  0  0  0  0  0  0
  -20.4381    9.4072   11.4088 C   0  0  0  0  0  0  0  0  0  0  0  0
  -20.5297    8.0030   11.5631 N   0  0  0  0  0  0  0  0  0  0  0  0
  -19.2651    9.9885   11.3309 N   0  0  0  0  0  0  0  0  0  0  0  0
  -19.3008   10.7843    5.1469 N   0  0  0  0  0  0  0  0  0  0  0  0
  -18.3711   11.4048    4.2218 C   0  0  2  0  0  0  0  0  0  0  0  0
  -19.1084   12.0281    3.0586 C   0  0  0  0  0  0  0  0  0  0  0  0
  -18.8922   13.1551    2.6112 O   0  0  0  0  0  0  0  0  0  0  0  0
  -17.4295   10.4129    3.6564 C   0  0  0  0  0  0  0  0  0  0  0  0
  -16.4827   10.8589    2.6492 C   0  0  0  0  0  0  0  0  0  0  0  0
  -16.6481   10.5691    1.3284 C   0  0  0  0  0  0  0  0  0  0  0  0
  -15.3634   11.5825    3.0290 C   0  0  0  0  0  0  0  0  0  0  0  0
  -15.7229   10.9844    0.3743 C   0  0  0  0  0  0  0  0  0  0  0  0
  -14.4299   12.0041    2.0816 C   0  0  0  0  0  0  0  0  0  0  0  0
  -14.5924   11.7140    0.7471 C   0  0  0  0  0  0  0  0  0  0  0  0
  -13.6844   12.1145   -0.2214 O   0  0  0  0  0  0  0  0  0  0  0  0
  -20.1261   11.2261    2.4506 N   0  0  0  0  0  0  0  0  0  0  0  0
  -20.9093   11.6243    1.3134 C   0  0  2  0  0  0  0  0  0  0  0  0
  -22.1160   12.3867    1.6974 C   0  0  0  0  0  0  0  0  0  0  0  0
  -22.8171   12.8689    0.7419 O   0  0  0  0  0  0  0  0  0  0  0  0
  -21.3232   10.3831    0.4990 C   0  0  0  0  0  0  0  0  0  0  0  0
  -20.1989    9.9225   -0.1436 O   0  0  0  0  0  0  0  0  0  0  0  0
  -22.5672   12.6379    3.0007 N   0  0  0  0  0  0  0  0  0  0  0  0
  -23.6322   13.5934    3.3288 C   0  0  2  0  0  0  0  0  0  0  0  0
  -23.0445   14.8995    3.5844 C   0  0  0  0  0  0  0  0  0  0  0  0
  -22.2441   15.4879    2.9000 O   0  0  0  0  0  0  0  0  0  0  0  0
  -24.5991   13.0805    4.3344 C   0  0  0  0  0  0  0  0  0  0  0  0
  -24.7825   11.5924    4.2328 C   0  0  0  0  0  0  0  0  0  0  0  0
  -26.2191   11.1682    4.4278 C   0  0  0  0  0  0  0  0  0  0  0  0
  -26.3017    9.7379    4.6413 N   0  0  0  0  0  0  0  0  0  0  0  0
  -27.5493    9.0966    4.8609 C   0  0  0  0  0  0  0  0  0  0  0  0
  -28.7630    9.8541    4.6626 N   0  0  0  0  0  0  0  0  0  0  0  0
  -27.6242    7.8737    5.2257 N   0  0  0  0  0  0  0  0  0  0  0  0
  -19.1972   10.8355   10.7390 H   0  0  0  0  0  0  0  0  0  0  0  0
  -26.8239    7.2395    5.0832 H   0  0  0  0  0  0  0  0  0  0  0  0
  1  2  2  0
  1  3  1  0
  1  4  1  0
  4  5  1  0
  5  6  1  0
  5  8  1  1
  6  7  2  0
  6 15  1  0
  8  9  1  0
  9 10  1  0
 10 11  1  0
 11 12  1  0
 12 13  1  0
 12 14  2  0
 15 16  1  0
 16 17  1  0
 16 19  1  6
 17 18  2  0
 17 27  1  0
 19 20  1  0
 20 21  2  0
 20 22  1  0
 21 23  1  0
 22 24  2  0
 23 25  2  0
 24 25  1  0
 25 26  1  0
 27 28  1  0
 28 29  1  0
 28 31  1  1
 29 30  2  0
 29 33  1  0
 31 32  1  0
 33 34  1  0
 34 35  1  0
 34 37  1  1
 35 36  2  0
 37 38  1  0
 38 39  1  0
 39 40  1  0
 40 41  1  0
 41 42  1  0
 41 43  2  0
 14 44  1  0
 43 45  1  0
M  END
$$$$
