
     RDKit          3D

 45 45  0  0  0  0  0  0  0  0999 V2000
  -20.5024  -20.5180    2.8069 C   0  0  0  0  0  0  0  0  0  0  0  0
  -20.5641  -19.3727    2.2867 O   0  0  0  0  0  0  0  0  0  0  0  0
  -19.5361  -20.7018    3.9209 C   0  0  0  0  0  0  0  0  0  0  0  0
  -21.2987  -21.6189    2.3867 N   0  0  0  0  0  0  0  0  0  0  0  0
  -22.1496  -21.4909    1.2394 C   0  0  2  0  0  0  0  0  0  0  0  0
  -23.3866  -20.7759    1.6534 C   0  0  0  0  0  0  0  0  0  0  0  0
  -24.1347  -21.2732    2.5486 O   0  0  0  0  0  0  0  0  0  0  0  0
  -22.5867  -22.8508    0.7370 C   0  0  0  0  0  0  0  0  0  0  0  0
  -23.6639  -22.7107   -0.3310 C   0  0  0  0  0  0  0  0  0  0  0  0
  -23.1178  -23.3491   -1.5870 C   0  0  0  0  0  0  0  0  0  0  0  0
  -23.0818  -24.7955   -1.4724 N   0  0  0  0  0  0  0  0  0  0  0  0
  -23.8685  -25.5754   -2.3649 C   0  0  0  0  0  0  0  0  0  0  0  0
  -23.2195  -26.3866   -3.3525 N   0  0  0  0  0  0  0  0  0  0  0  0
  -25.1554  -25.5707   -2.3092 N   0  0  0  0  0  0  0  0  0  0  0  0
  -23.8169  -19.5374    1.1091 N   0  0  0  0  0  0  0  0  0  0  0  0
  -25.0764  -18.9065    1.5537 C   0  0  2  0  0  0  0  0  0  0  0  0
  -26.2065  -19.7391    1.1581 C   0  0  0  0  0  0  0  0  0  0  0  0
  -26.2946  -20.0556   -0.0739 O   0  0  0  0  0  0  0  0  0  0  0  0
  -25.1059  -17.5088    1.0059 C   0  0  0  0  0  0  0  0  0  0  0  0
  -26.3511  -16.8118    1.3784 C   0  0  0  0  0  0  0  0  0  0  0  0
  -26.5606  -16.4165    2.6740 C   0  0  0  0  0  0  0  0  0  0  0  0
  -27.3640  -16.5246    0.4591 C   0  0  0  0  0  0  0  0  0  0  0  0
  -27.7300  -15.7590    3.0480 C   0  0  0  0  0  0  0  0  0  0  0  0
  -28.5127  -15.8787    0.8269 C   0  0  0  0  0  0  0  0  0  0  0  0
  -28.7220  -15.4838    2.1162 C   0  0  0  0  0  0  0  0  0  0  0  0
  -29.8973  -14.8234    2.4936 O   0  0  0  0  0  0  0  0  0  0  0  0
  -27.2412  -20.2545    1.9663 N   0  0  0  0  0  0  0  0  0  0  0  0
  -28.4923  -20.7344    1.4518 C   0  0  2  0  0  0  0  0  0  0  0  0
  -29.1917  -19.8387    0.5250 C   0  0  0  0  0  0  0  0  0  0  0  0
  -28.8426  -18.7008    0.1718 O   0  0  0  0  0  0  0  0  0  0  0  0
  -29.4195  -20.8855    2.6832 C   0  0  0  0  0  0  0  0  0  0  0  0
  -28.7319  -20.9647    3.8627 O   0  0  0  0  0  0  0  0  0  0  0  0
  -30.4211  -20.3559   -0.0276 N   0  0  0  0  0  0  0  0  0  0  0  0
  -31.2028  -19.5258   -0.9520 C   0  0  2  0  0  0  0  0  0  0  0  0
  -32.3095  -18.9193   -0.2156 C   0  0  0  0  0  0  0  0  0  0  0  0
  -32.9479  -18.0158   -0.7217 O   0  0  0  0  0  0  0  0  0  0  0  0
  -31.6329  -20.4762   -2.0585 C   0  0  0  0  0  0  0  0  0  0  0  0
  -32.4721  -21.6114   -1.5752 C   0  0  0  0  0  0  0  0  0  0  0  0
  -32.9039  -22.5464   -2.6676 C   0  0  0  0  0  0  0  0  0  0  0  0
  -32.7638  -22.0115   -3.9801 N   0  0  0  0  0  0  0  0  0  0  0  0
  -32.1621  -22.7062   -5.0536 C   0  0  0  0  0  0  0  0  0  0  0  0
  -31.4916  -23.9205   -4.8020 N   0  0  0  0  0  0  0  0  0  0  0  0
  -32.2097  -22.2531   -6.2481 N   0  0  0  0  0  0  0  0  0  0  0  0
  -25.7497  -24.7257   -2.2974 H   0  0  0  0  0  0  0  0  0  0  0  0
  -32.2843  -21.2632   -6.5031 H   0  0  0  0  0  0  0  0  0  0  0  0
  1  2  2  0
  3  1  1  6
  1  4  1  0
  5  4  1  1
  5  6  1  0
  8  5  1  1
  6  7  2  0
  6 15  1  0
  8  9  1  0
  9 10  1  6
 10 11  1  6
 11 12  1  0
 12 13  1  0
 12 14  2  0
 16 15  1  6
 16 17  1  0
 16 19  1  0
 17 18  2  0
 17 27  1  0
 19 20  1  6
 20 21  2  0
 20 22  1  0
 21 23  1  0
 22 24  2  0
 23 25  2  0
 24 25  1  0
 25 26  1  0
 28 27  1  1
 28 29  1  0
 28 31  1  0
 29 30  2  0
 29 33  1  0
 31 32  1  6
 34 33  1  1
 34 35  1  0
 37 34  1  1
 35 36  2  0
 37 38  1  0
 38 39  1  6
 39 40  1  6
 40 41  1  0
 41 42  1  0
 41 43  2  0
 14 44  1  0
 43 45  1  0
M  END
$$$$
