
     RDKit          3D

 45 45  0  0  0  0  0  0  0  0999 V2000
  -16.3206    9.5056    8.8195 C   0  0  0  0  0  0  0  0  0  0  0  0
  -15.5166    9.3193    9.7290 O   0  0  0  0  0  0  0  0  0  0  0  0
  -15.8099    9.5093    7.3950 C   0  0  0  0  0  0  0  0  0  0  0  0
  -17.7123    9.7237    8.9691 N   0  0  0  0  0  0  0  0  0  0  0  0
  -18.6353    9.5163    7.9017 C   0  0  2  0  0  0  0  0  0  0  0  0
  -17.9948    9.7579    6.6038 C   0  0  0  0  0  0  0  0  0  0  0  0
  -17.0279   10.5954    6.4815 O   0  0  0  0  0  0  0  0  0  0  0  0
  -19.9281   10.2023    8.0963 C   0  0  0  0  0  0  0  0  0  0  0  0
  -20.5505    9.9552    9.4218 C   0  0  0  0  0  0  0  0  0  0  0  0
  -20.3316    8.6615   10.1037 C   0  0  0  0  0  0  0  0  0  0  0  0
  -19.6791    8.8668   11.4123 N   0  0  0  0  0  0  0  0  0  0  0  0
  -19.5095    7.7506   12.2581 C   0  0  0  0  0  0  0  0  0  0  0  0
  -20.6500    7.0336   12.6931 N   0  0  0  0  0  0  0  0  0  0  0  0
  -18.3107    7.3803   12.6398 N   0  0  0  0  0  0  0  0  0  0  0  0
  -18.4102    9.0882    5.4243 N   0  0  0  0  0  0  0  0  0  0  0  0
  -17.9217    9.5017    4.1222 C   0  0  2  0  0  0  0  0  0  0  0  0
  -18.7378   10.6554    3.5854 C   0  0  0  0  0  0  0  0  0  0  0  0
  -18.4559   11.3088    2.5801 O   0  0  0  0  0  0  0  0  0  0  0  0
  -18.0218    8.4040    3.1348 C   0  0  0  0  0  0  0  0  0  0  0  0
  -19.0076    8.5199    2.0743 C   0  0  0  0  0  0  0  0  0  0  0  0
  -18.7974    9.3032    0.9797 C   0  0  0  0  0  0  0  0  0  0  0  0
  -20.2097    7.8374    2.1741 C   0  0  0  0  0  0  0  0  0  0  0  0
  -19.7584    9.4228   -0.0207 C   0  0  0  0  0  0  0  0  0  0  0  0
  -21.1797    7.9496    1.1776 C   0  0  0  0  0  0  0  0  0  0  0  0
  -20.9723    8.7391    0.0708 C   0  0  0  0  0  0  0  0  0  0  0  0
  -21.9144    8.8760   -0.9376 O   0  0  0  0  0  0  0  0  0  0  0  0
  -19.9207   10.9898    4.3185 N   0  0  0  0  0  0  0  0  0  0  0  0
  -20.8441   12.0274    3.9498 C   0  0  2  0  0  0  0  0  0  0  0  0
  -20.3750   13.3703    4.3517 C   0  0  0  0  0  0  0  0  0  0  0  0
  -21.0875   14.3631    3.9729 O   0  0  0  0  0  0  0  0  0  0  0  0
  -22.2225   11.7541    4.5824 C   0  0  0  0  0  0  0  0  0  0  0  0
  -22.0118   11.4524    5.9067 O   0  0  0  0  0  0  0  0  0  0  0  0
  -19.2279   13.6659    5.1014 N   0  0  0  0  0  0  0  0  0  0  0  0
  -18.6963   15.0219    5.2849 C   0  0  2  0  0  0  0  0  0  0  0  0
  -17.3689   15.1019    4.6950 C   0  0  0  0  0  0  0  0  0  0  0  0
  -16.6316   16.0566    4.6798 O   0  0  0  0  0  0  0  0  0  0  0  0
  -18.8504   15.5360    6.6709 C   0  0  0  0  0  0  0  0  0  0  0  0
  -17.7202   15.1034    7.5620 C   0  0  0  0  0  0  0  0  0  0  0  0
  -18.1355   14.0452    8.5568 C   0  0  0  0  0  0  0  0  0  0  0  0
  -17.8179   14.4646    9.9064 N   0  0  0  0  0  0  0  0  0  0  0  0
  -16.7961   13.8241   10.6558 C   0  0  0  0  0  0  0  0  0  0  0  0
  -16.4081   12.4809   10.2928 N   0  0  0  0  0  0  0  0  0  0  0  0
  -16.2143   14.4032   11.6357 N   0  0  0  0  0  0  0  0  0  0  0  0
  -17.5858    8.1176   12.6978 H   0  0  0  0  0  0  0  0  0  0  0  0
  -16.4572   15.3741   11.8832 H   0  0  0  0  0  0  0  0  0  0  0  0
  1  2  2  0
  1  3  1  0
  1  4  1  0
  4  5  1  0
  5  6  1  0
  5  8  1  1
  6  7  2  0
  6 15  1  0
  8  9  1  0
  9 10  1  0
 10 11  1  0
 11 12  1  0
 12 13  1  0
 12 14  2  0
 15 16  1  0
 16 17  1  0
 16 19  1  6
 17 18  2  0
 17 27  1  0
 19 20  1  0
 20 21  2  0
 20 22  1  0
 21 23  1  0
 22 24  2  0
 23 25  2  0
 24 25  1  0
 25 26  1  0
 27 28  1  0
 28 29  1  0
 28 31  1  1
 29 30  2  0
 29 33  1  0
 31 32  1  0
 33 34  1  0
 34 35  1  0
 34 37  1  1
 35 36  2  0
 37 38  1  0
 38 39  1  0
 39 40  1  0
 40 41  1  0
 41 42  1  0
 41 43  2  0
 14 44  1  0
 43 45  1  0
M  END
$$$$
