
     RDKit          3D

 45 45  0  0  0  0  0  0  0  0999 V2000
  -21.4868   10.7660    8.5794 C   0  0  0  0  0  0  0  0  0  0  0  0
  -21.4498    9.6398    9.0680 O   0  0  0  0  0  0  0  0  0  0  0  0
  -21.8932   11.9235    9.4653 C   0  0  0  0  0  0  0  0  0  0  0  0
  -21.1811   11.1027    7.2377 N   0  0  0  0  0  0  0  0  0  0  0  0
  -20.7801   10.1255    6.2793 C   0  0  2  0  0  0  0  0  0  0  0  0
  -19.3393   10.2137    6.0158 C   0  0  0  0  0  0  0  0  0  0  0  0
  -18.5445    9.2506    6.3192 O   0  0  0  0  0  0  0  0  0  0  0  0
  -21.6334   10.0937    5.0749 C   0  0  0  0  0  0  0  0  0  0  0  0
  -21.6639   11.3729    4.3211 C   0  0  0  0  0  0  0  0  0  0  0  0
  -21.4659   11.3642    2.8558 C   0  0  0  0  0  0  0  0  0  0  0  0
  -22.7652   11.3274    2.1552 N   0  0  0  0  0  0  0  0  0  0  0  0
  -23.0119   12.2875    1.1515 C   0  0  0  0  0  0  0  0  0  0  0  0
  -21.9620   13.1444    0.7421 N   0  0  0  0  0  0  0  0  0  0  0  0
  -24.1991   12.3884    0.6036 N   0  0  0  0  0  0  0  0  0  0  0  0
  -18.7525   11.3603    5.4214 N   0  0  0  0  0  0  0  0  0  0  0  0
  -17.3658   11.3505    4.9950 C   0  0  2  0  0  0  0  0  0  0  0  0
  -16.9867   12.6758    4.3745 C   0  0  0  0  0  0  0  0  0  0  0  0
  -15.8502   13.1506    4.3690 O   0  0  0  0  0  0  0  0  0  0  0  0
  -17.1230   10.3084    3.9727 C   0  0  0  0  0  0  0  0  0  0  0  0
  -16.7308    8.9833    4.4202 C   0  0  0  0  0  0  0  0  0  0  0  0
  -17.6507    8.0373    4.7591 C   0  0  0  0  0  0  0  0  0  0  0  0
  -15.3868    8.6640    4.5311 C   0  0  0  0  0  0  0  0  0  0  0  0
  -17.2626    6.7772    5.2066 C   0  0  0  0  0  0  0  0  0  0  0  0
  -14.9864    7.4043    4.9781 C   0  0  0  0  0  0  0  0  0  0  0  0
  -15.9111    6.4460    5.3214 C   0  0  0  0  0  0  0  0  0  0  0  0
  -15.5498    5.1850    5.7714 O   0  0  0  0  0  0  0  0  0  0  0  0
  -18.0463   13.4106    3.7532 N   0  0  0  0  0  0  0  0  0  0  0  0
  -17.9118   14.7325    3.2057 C   0  0  2  0  0  0  0  0  0  0  0  0
  -18.8596   15.6931    3.8089 C   0  0  0  0  0  0  0  0  0  0  0  0
  -18.8993   16.8617    3.2896 O   0  0  0  0  0  0  0  0  0  0  0  0
  -18.1214   14.6936    1.6794 C   0  0  0  0  0  0  0  0  0  0  0  0
  -19.4495   14.4186    1.4562 O   0  0  0  0  0  0  0  0  0  0  0  0
  -19.7152   15.4548    4.8936 N   0  0  0  0  0  0  0  0  0  0  0  0
  -20.5044   16.4985    5.5589 C   0  0  2  0  0  0  0  0  0  0  0  0
  -19.7865   17.7620    5.4894 C   0  0  0  0  0  0  0  0  0  0  0  0
  -18.7146   18.0218    5.9778 O   0  0  0  0  0  0  0  0  0  0  0  0
  -21.0236   16.0903    6.8904 C   0  0  0  0  0  0  0  0  0  0  0  0
  -21.8549   14.8407    6.8130 C   0  0  0  0  0  0  0  0  0  0  0  0
  -22.6646   14.6016    8.0655 C   0  0  0  0  0  0  0  0  0  0  0  0
  -22.2824   13.3497    8.6858 N   0  0  0  0  0  0  0  0  0  0  0  0
  -21.8026   13.3055   10.0214 C   0  0  0  0  0  0  0  0  0  0  0  0
  -20.7747   12.3481   10.3580 N   0  0  0  0  0  0  0  0  0  0  0  0
  -22.2536   14.0876   10.9264 N   0  0  0  0  0  0  0  0  0  0  0  0
  -24.8829   11.6413    0.8197 H   0  0  0  0  0  0  0  0  0  0  0  0
  -23.0488   14.7119   10.7239 H   0  0  0  0  0  0  0  0  0  0  0  0
  1  2  2  0
  1  3  1  0
  1  4  1  0
  4  5  1  0
  5  6  1  0
  5  8  1  6
  6  7  2  0
  6 15  1  0
  8  9  1  0
  9 10  1  0
 10 11  1  0
 11 12  1  0
 12 13  1  0
 12 14  2  0
 15 16  1  0
 16 17  1  0
 16 19  1  6
 17 18  2  0
 17 27  1  0
 19 20  1  0
 20 21  2  0
 20 22  1  0
 21 23  1  0
 22 24  2  0
 23 25  2  0
 24 25  1  0
 25 26  1  0
 27 28  1  0
 28 29  1  0
 28 31  1  6
 29 30  2  0
 29 33  1  0
 31 32  1  0
 33 34  1  0
 34 35  1  0
 34 37  1  1
 35 36  2  0
 37 38  1  0
 38 39  1  0
 39 40  1  0
 40 41  1  0
 41 42  1  0
 41 43  2  0
 14 44  1  0
 43 45  1  0
M  END
$$$$
