
     RDKit          3D

 45 45  0  0  0  0  0  0  0  0999 V2000
  -13.6656   10.2235    8.2940 C   0  0  0  0  0  0  0  0  0  0  0  0
  -13.8210   11.3687    8.7942 O   0  0  0  0  0  0  0  0  0  0  0  0
  -12.4642    9.4589    8.7194 C   0  0  0  0  0  0  0  0  0  0  0  0
  -14.5680    9.6409    7.3618 N   0  0  0  0  0  0  0  0  0  0  0  0
  -15.6082   10.4374    6.7783 C   0  0  2  0  0  0  0  0  0  0  0  0
  -16.9189    9.8746    7.2002 C   0  0  0  0  0  0  0  0  0  0  0  0
  -17.0553    8.6207    7.3330 O   0  0  0  0  0  0  0  0  0  0  0  0
  -15.5700   10.3521    5.2670 C   0  0  0  0  0  0  0  0  0  0  0  0
  -14.7194   11.4737    4.6847 C   0  0  0  0  0  0  0  0  0  0  0  0
  -15.6687   12.5823    4.2935 C   0  0  0  0  0  0  0  0  0  0  0  0
  -15.8604   12.6317    2.8557 N   0  0  0  0  0  0  0  0  0  0  0  0
  -15.4330   13.7873    2.1447 C   0  0  0  0  0  0  0  0  0  0  0  0
  -14.8685   14.8902    2.8654 N   0  0  0  0  0  0  0  0  0  0  0  0
  -15.5417   13.8693    0.8638 N   0  0  0  0  0  0  0  0  0  0  0  0
  -18.0740   10.6525    7.4758 N   0  0  0  0  0  0  0  0  0  0  0  0
  -19.4230   10.1640    7.1242 C   0  0  2  0  0  0  0  0  0  0  0  0
  -19.7960   10.6646    5.8062 C   0  0  0  0  0  0  0  0  0  0  0  0
  -19.1875   11.7019    5.3826 O   0  0  0  0  0  0  0  0  0  0  0  0
  -20.3559   10.5603    8.2319 C   0  0  0  0  0  0  0  0  0  0  0  0
  -19.9440    9.9691    9.5187 C   0  0  0  0  0  0  0  0  0  0  0  0
  -18.9439   10.5476   10.2563 C   0  0  0  0  0  0  0  0  0  0  0  0
  -20.5299    8.8146   10.0454 C   0  0  0  0  0  0  0  0  0  0  0  0
  -18.5378   10.0048   11.4729 C   0  0  0  0  0  0  0  0  0  0  0  0
  -20.1305    8.2816   11.2406 C   0  0  0  0  0  0  0  0  0  0  0  0
  -19.1358    8.8571   11.9763 C   0  0  0  0  0  0  0  0  0  0  0  0
  -18.7261    8.3122   13.1989 O   0  0  0  0  0  0  0  0  0  0  0  0
  -20.7595   10.1505    4.9135 N   0  0  0  0  0  0  0  0  0  0  0  0
  -21.5943   10.9697    4.0814 C   0  0  2  0  0  0  0  0  0  0  0  0
  -23.0265   10.9554    4.3962 C   0  0  0  0  0  0  0  0  0  0  0  0
  -23.6674   10.0422    4.9410 O   0  0  0  0  0  0  0  0  0  0  0  0
  -21.4637   10.3837    2.6536 C   0  0  0  0  0  0  0  0  0  0  0  0
  -21.7744    9.0533    2.5921 O   0  0  0  0  0  0  0  0  0  0  0  0
  -23.7550   12.1448    4.0232 N   0  0  0  0  0  0  0  0  0  0  0  0
  -25.2183   12.0933    3.9219 C   0  0  2  0  0  0  0  0  0  0  0  0
  -25.7387   11.3155    5.0441 C   0  0  0  0  0  0  0  0  0  0  0  0
  -25.9580   11.8635    6.1080 O   0  0  0  0  0  0  0  0  0  0  0  0
  -25.4920   11.4828    2.5563 C   0  0  0  0  0  0  0  0  0  0  0  0
  -26.9424   11.4227    2.2110 C   0  0  0  0  0  0  0  0  0  0  0  0
  -27.4093   10.0515    1.8164 C   0  0  0  0  0  0  0  0  0  0  0  0
  -27.3584    9.0942    2.8697 N   0  0  0  0  0  0  0  0  0  0  0  0
  -28.5002    8.5944    3.5356 C   0  0  0  0  0  0  0  0  0  0  0  0
  -28.3364    7.6926    4.6067 N   0  0  0  0  0  0  0  0  0  0  0  0
  -29.6795    8.9402    3.1830 N   0  0  0  0  0  0  0  0  0  0  0  0
  -15.9549   13.1468    0.2519 H   0  0  0  0  0  0  0  0  0  0  0  0
  -30.1752    8.5941    2.3553 H   0  0  0  0  0  0  0  0  0  0  0  0
  1  2  2  0
  3  1  1  6
  1  4  1  0
  5  4  1  1
  5  6  1  0
  8  5  1  1
  6  7  2  0
  6 15  1  0
  8  9  1  0
  9 10  1  6
 10 11  1  6
 11 12  1  0
 12 13  1  0
 12 14  2  0
 16 15  1  1
 16 17  1  0
 16 19  1  0
 17 18  2  0
 17 27  1  0
 19 20  1  6
 20 21  2  0
 20 22  1  0
 21 23  1  0
 22 24  2  0
 23 25  2  0
 24 25  1  0
 25 26  1  0
 28 27  1  1
 28 29  1  0
 28 31  1  0
 29 30  2  0
 29 33  1  0
 31 32  1  6
 34 33  1  1
 34 35  1  0
 37 34  1  1
 35 36  2  0
 37 38  1  0
 38 39  1  6
 39 40  1  6
 40 41  1  0
 41 42  1  0
 41 43  2  0
 14 44  1  0
 43 45  1  0
M  END
$$$$
