
     RDKit          3D

 45 45  0  0  0  0  0  0  0  0999 V2000
  -20.4654   10.4035   10.4005 C   0  0  0  0  0  0  0  0  0  0  0  0
  -20.1423   11.6121   10.5447 O   0  0  0  0  0  0  0  0  0  0  0  0
  -21.8982   10.0604   10.5958 C   0  0  0  0  0  0  0  0  0  0  0  0
  -19.5422    9.3749   10.0655 N   0  0  0  0  0  0  0  0  0  0  0  0
  -18.1816    9.7065    9.7561 C   0  0  2  0  0  0  0  0  0  0  0  0
  -18.1553   10.3773    8.4287 C   0  0  0  0  0  0  0  0  0  0  0  0
  -18.4995   11.5938    8.3281 O   0  0  0  0  0  0  0  0  0  0  0  0
  -17.3382    8.4561    9.6228 C   0  0  0  0  0  0  0  0  0  0  0  0
  -17.5014    7.5624   10.8456 C   0  0  0  0  0  0  0  0  0  0  0  0
  -16.2539    7.7344   11.6807 C   0  0  0  0  0  0  0  0  0  0  0  0
  -16.5761    7.8884   13.0874 N   0  0  0  0  0  0  0  0  0  0  0  0
  -15.5160    8.0584   14.0207 C   0  0  0  0  0  0  0  0  0  0  0  0
  -14.7619    6.9165   14.4473 N   0  0  0  0  0  0  0  0  0  0  0  0
  -15.2153    9.2174   14.4956 N   0  0  0  0  0  0  0  0  0  0  0  0
  -17.7635    9.7460    7.2190 N   0  0  0  0  0  0  0  0  0  0  0  0
  -17.9238   10.4267    5.9179 C   0  0  2  0  0  0  0  0  0  0  0  0
  -19.3363   10.4652    5.5569 C   0  0  0  0  0  0  0  0  0  0  0  0
  -19.9602    9.3537    5.5234 O   0  0  0  0  0  0  0  0  0  0  0  0
  -17.0421    9.7270    4.9242 C   0  0  0  0  0  0  0  0  0  0  0  0
  -15.6857    9.5169    5.4637 C   0  0  0  0  0  0  0  0  0  0  0  0
  -15.0736    8.2968    5.3382 C   0  0  0  0  0  0  0  0  0  0  0  0
  -14.9661   10.5198    6.1193 C   0  0  0  0  0  0  0  0  0  0  0  0
  -13.7942    8.0760    5.8421 C   0  0  0  0  0  0  0  0  0  0  0  0
  -13.7093   10.3023    6.6143 C   0  0  0  0  0  0  0  0  0  0  0  0
  -13.0984    9.0886    6.4892 C   0  0  0  0  0  0  0  0  0  0  0  0
  -11.8127    8.8650    6.9959 O   0  0  0  0  0  0  0  0  0  0  0  0
  -20.1276   11.5863    5.2307 N   0  0  0  0  0  0  0  0  0  0  0  0
  -21.4237   11.4982    4.6203 C   0  0  2  0  0  0  0  0  0  0  0  0
  -21.4610   10.9228    3.2720 C   0  0  0  0  0  0  0  0  0  0  0  0
  -20.5121   10.4374    2.6354 O   0  0  0  0  0  0  0  0  0  0  0  0
  -21.9173   12.9593    4.4762 C   0  0  0  0  0  0  0  0  0  0  0  0
  -21.5583   13.7506    5.5323 O   0  0  0  0  0  0  0  0  0  0  0  0
  -22.7542   10.9309    2.6303 N   0  0  0  0  0  0  0  0  0  0  0  0
  -22.8331   10.9757    1.1653 C   0  0  2  0  0  0  0  0  0  0  0  0
  -21.8618   11.9501    0.6733 C   0  0  0  0  0  0  0  0  0  0  0  0
  -22.1684   13.1254    0.6037 O   0  0  0  0  0  0  0  0  0  0  0  0
  -24.2815   11.3285    0.8649 C   0  0  0  0  0  0  0  0  0  0  0  0
  -25.2009   10.1540    0.9054 C   0  0  0  0  0  0  0  0  0  0  0  0
  -26.6054   10.4761    0.4841 C   0  0  0  0  0  0  0  0  0  0  0  0
  -27.4897    9.3599    0.5061 N   0  0  0  0  0  0  0  0  0  0  0  0
  -28.8744    9.4467    0.2377 C   0  0  0  0  0  0  0  0  0  0  0  0
  -29.6777    8.2958    0.3699 N   0  0  0  0  0  0  0  0  0  0  0  0
  -29.4127   10.5474   -0.1274 N   0  0  0  0  0  0  0  0  0  0  0  0
  -15.5504   10.1208   14.1232 H   0  0  0  0  0  0  0  0  0  0  0  0
  -29.3746   10.9397   -1.0735 H   0  0  0  0  0  0  0  0  0  0  0  0
  1  2  2  0
  3  1  1  6
  1  4  1  0
  5  4  1  6
  5  6  1  0
  8  5  1  1
  6  7  2  0
  6 15  1  0
  8  9  1  0
  9 10  1  6
 10 11  1  6
 11 12  1  0
 12 13  1  0
 12 14  2  0
 16 15  1  1
 16 17  1  0
 16 19  1  0
 17 18  2  0
 17 27  1  0
 19 20  1  6
 20 21  2  0
 20 22  1  0
 21 23  1  0
 22 24  2  0
 23 25  2  0
 24 25  1  0
 25 26  1  0
 28 27  1  6
 28 29  1  0
 28 31  1  0
 29 30  2  0
 29 33  1  0
 31 32  1  6
 34 33  1  1
 34 35  1  0
 37 34  1  1
 35 36  2  0
 37 38  1  0
 38 39  1  6
 39 40  1  6
 40 41  1  0
 41 42  1  0
 41 43  2  0
 14 44  1  0
 43 45  1  0
M  END
$$$$
