
     RDKit          3D

 45 45  0  0  0  0  0  0  0  0999 V2000
  -15.4818    7.1272    9.4873 C   0  0  0  0  0  0  0  0  0  0  0  0
  -15.9766    6.1213    8.9133 O   0  0  0  0  0  0  0  0  0  0  0  0
  -14.4020    6.8758   10.4771 C   0  0  0  0  0  0  0  0  0  0  0  0
  -15.8994    8.4633    9.2362 N   0  0  0  0  0  0  0  0  0  0  0  0
  -17.2861    8.8127    9.3447 C   0  0  2  0  0  0  0  0  0  0  0  0
  -17.4943   10.1148    8.6562 C   0  0  0  0  0  0  0  0  0  0  0  0
  -18.3688   10.9255    9.0881 O   0  0  0  0  0  0  0  0  0  0  0  0
  -17.6779    9.0239   10.7920 C   0  0  0  0  0  0  0  0  0  0  0  0
  -19.1088    9.5367   10.8941 C   0  0  0  0  0  0  0  0  0  0  0  0
  -19.4920    9.4706   12.3543 C   0  0  0  0  0  0  0  0  0  0  0  0
  -20.8386    8.9567   12.5249 N   0  0  0  0  0  0  0  0  0  0  0  0
  -21.3646    8.8311   13.8407 C   0  0  0  0  0  0  0  0  0  0  0  0
  -20.5394    9.1626   14.9648 N   0  0  0  0  0  0  0  0  0  0  0  0
  -22.5687    8.4240   14.0493 N   0  0  0  0  0  0  0  0  0  0  0  0
  -16.7700   10.5417    7.5124 N   0  0  0  0  0  0  0  0  0  0  0  0
  -17.4118   10.6025    6.1833 C   0  0  2  0  0  0  0  0  0  0  0  0
  -18.8564   10.7220    6.3430 C   0  0  0  0  0  0  0  0  0  0  0  0
  -19.4925    9.6754    6.6981 O   0  0  0  0  0  0  0  0  0  0  0  0
  -16.9650    9.3992    5.4044 C   0  0  0  0  0  0  0  0  0  0  0  0
  -17.2848    9.5377    3.9713 C   0  0  0  0  0  0  0  0  0  0  0  0
  -18.1904    8.6950    3.3809 C   0  0  0  0  0  0  0  0  0  0  0  0
  -16.6972   10.5064    3.1529 C   0  0  0  0  0  0  0  0  0  0  0  0
  -18.5055    8.8067    2.0289 C   0  0  0  0  0  0  0  0  0  0  0  0
  -17.0069   10.6157    1.8247 C   0  0  0  0  0  0  0  0  0  0  0  0
  -17.9090    9.7781    1.2360 C   0  0  0  0  0  0  0  0  0  0  0  0
  -18.2261    9.8888   -0.1230 O   0  0  0  0  0  0  0  0  0  0  0  0
  -19.6683   11.8598    6.1540 N   0  0  0  0  0  0  0  0  0  0  0  0
  -21.0097   11.8079    5.6459 C   0  0  2  0  0  0  0  0  0  0  0  0
  -21.2253   10.9318    4.4899 C   0  0  0  0  0  0  0  0  0  0  0  0
  -20.5198    9.9760    4.1291 O   0  0  0  0  0  0  0  0  0  0  0  0
  -21.3280   13.2438    5.1604 C   0  0  0  0  0  0  0  0  0  0  0  0
  -20.6295   13.5950    4.0383 O   0  0  0  0  0  0  0  0  0  0  0  0
  -22.3931   11.2302    3.6953 N   0  0  0  0  0  0  0  0  0  0  0  0
  -22.8063   10.2973    2.6401 C   0  0  2  0  0  0  0  0  0  0  0  0
  -23.8767   10.9154    1.8609 C   0  0  0  0  0  0  0  0  0  0  0  0
  -24.6101   10.2193    1.1844 O   0  0  0  0  0  0  0  0  0  0  0  0
  -23.2187    9.0335    3.3786 C   0  0  0  0  0  0  0  0  0  0  0  0
  -24.4359    8.3831    2.8112 C   0  0  0  0  0  0  0  0  0  0  0  0
  -25.6222    8.4239    3.7305 C   0  0  0  0  0  0  0  0  0  0  0  0
  -26.6185    9.3688    3.3526 N   0  0  0  0  0  0  0  0  0  0  0  0
  -27.8795    9.4776    3.9811 C   0  0  0  0  0  0  0  0  0  0  0  0
  -28.7799   10.4758    3.5563 N   0  0  0  0  0  0  0  0  0  0  0  0
  -28.2186    8.6918    4.9308 N   0  0  0  0  0  0  0  0  0  0  0  0
  -23.1339    7.8669   13.3880 H   0  0  0  0  0  0  0  0  0  0  0  0
  -27.6364    7.9398    5.3132 H   0  0  0  0  0  0  0  0  0  0  0  0
  1  2  2  0
  3  1  1  6
  1  4  1  0
  5  4  1  1
  5  6  1  0
  8  5  1  1
  6  7  2  0
  6 15  1  0
  8  9  1  0
  9 10  1  6
 10 11  1  6
 11 12  1  0
 12 13  1  0
 12 14  2  0
 16 15  1  1
 16 17  1  0
 16 19  1  0
 17 18  2  0
 17 27  1  0
 19 20  1  6
 20 21  2  0
 20 22  1  0
 21 23  1  0
 22 24  2  0
 23 25  2  0
 24 25  1  0
 25 26  1  0
 28 27  1  6
 28 29  1  0
 28 31  1  0
 29 30  2  0
 29 33  1  0
 31 32  1  6
 34 33  1  1
 34 35  1  0
 37 34  1  1
 35 36  2  0
 37 38  1  0
 38 39  1  6
 39 40  1  6
 40 41  1  0
 41 42  1  0
 41 43  2  0
 14 44  1  0
 43 45  1  0
M  END
$$$$
