
     RDKit          3D

 45 45  0  0  0  0  0  0  0  0999 V2000
  -17.5235   12.1064   11.4917 C   0  0  0  0  0  0  0  0  0  0  0  0
  -16.6852   12.7440   10.8012 O   0  0  0  0  0  0  0  0  0  0  0  0
  -17.9923   12.7495   12.7469 C   0  0  0  0  0  0  0  0  0  0  0  0
  -18.0316   10.8276   11.1323 N   0  0  0  0  0  0  0  0  0  0  0  0
  -17.5474   10.1700    9.9534 C   0  0  2  0  0  0  0  0  0  0  0  0
  -18.3546   10.6364    8.7942 C   0  0  0  0  0  0  0  0  0  0  0  0
  -19.5974   10.8479    8.9334 O   0  0  0  0  0  0  0  0  0  0  0  0
  -17.7543    8.6729   10.0469 C   0  0  0  0  0  0  0  0  0  0  0  0
  -16.4991    7.9866   10.5703 C   0  0  0  0  0  0  0  0  0  0  0  0
  -16.7228    6.4993   10.4247 C   0  0  0  0  0  0  0  0  0  0  0  0
  -17.7020    6.0156   11.3806 N   0  0  0  0  0  0  0  0  0  0  0  0
  -17.2545    5.5584   12.6511 C   0  0  0  0  0  0  0  0  0  0  0  0
  -17.1788    6.4804   13.7460 N   0  0  0  0  0  0  0  0  0  0  0  0
  -16.9127    4.3315   12.8440 N   0  0  0  0  0  0  0  0  0  0  0  0
  -17.8312   10.8723    7.4959 N   0  0  0  0  0  0  0  0  0  0  0  0
  -18.5909   11.6538    6.4988 C   0  0  2  0  0  0  0  0  0  0  0  0
  -19.5302   10.7800    5.8052 C   0  0  0  0  0  0  0  0  0  0  0  0
  -19.1117    9.6233    5.4696 O   0  0  0  0  0  0  0  0  0  0  0  0
  -17.5995   12.3424    5.6058 C   0  0  0  0  0  0  0  0  0  0  0  0
  -18.2642   12.9713    4.4492 C   0  0  0  0  0  0  0  0  0  0  0  0
  -19.6139   13.2093    4.4733 C   0  0  0  0  0  0  0  0  0  0  0  0
  -17.5773   13.3479    3.2917 C   0  0  0  0  0  0  0  0  0  0  0  0
  -20.2620   13.8001    3.3914 C   0  0  0  0  0  0  0  0  0  0  0  0
  -18.2145   13.9282    2.2290 C   0  0  0  0  0  0  0  0  0  0  0  0
  -19.5578   14.1665    2.2521 C   0  0  0  0  0  0  0  0  0  0  0  0
  -20.2107   14.7596    1.1651 O   0  0  0  0  0  0  0  0  0  0  0  0
  -20.8682   11.0418    5.4440 N   0  0  0  0  0  0  0  0  0  0  0  0
  -21.6447   10.1916    4.5869 C   0  0  2  0  0  0  0  0  0  0  0  0
  -22.1837   10.8197    3.3764 C   0  0  0  0  0  0  0  0  0  0  0  0
  -22.9337   11.8069    3.3119 O   0  0  0  0  0  0  0  0  0  0  0  0
  -22.8716    9.7597    5.4279 C   0  0  0  0  0  0  0  0  0  0  0  0
  -23.6781   10.8089    5.7732 O   0  0  0  0  0  0  0  0  0  0  0  0
  -21.7863   10.2072    2.1309 N   0  0  0  0  0  0  0  0  0  0  0  0
  -22.3209   10.7281    0.8671 C   0  0  2  0  0  0  0  0  0  0  0  0
  -23.1422    9.6928    0.2436 C   0  0  0  0  0  0  0  0  0  0  0  0
  -23.5362    9.8411   -0.8979 O   0  0  0  0  0  0  0  0  0  0  0  0
  -21.0943   11.1248    0.0605 C   0  0  0  0  0  0  0  0  0  0  0  0
  -20.4179   12.3529    0.5711 C   0  0  0  0  0  0  0  0  0  0  0  0
  -19.2602   12.7967   -0.2755 C   0  0  0  0  0  0  0  0  0  0  0  0
  -18.3597   11.7499   -0.6243 N   0  0  0  0  0  0  0  0  0  0  0  0
  -17.2075   11.9351   -1.4211 C   0  0  0  0  0  0  0  0  0  0  0  0
  -16.3590   10.8383   -1.6752 N   0  0  0  0  0  0  0  0  0  0  0  0
  -16.9163   13.0788   -1.9126 N   0  0  0  0  0  0  0  0  0  0  0  0
  -17.0405    3.5623   12.1665 H   0  0  0  0  0  0  0  0  0  0  0  0
  -17.4912   13.9231   -1.8281 H   0  0  0  0  0  0  0  0  0  0  0  0
  1  2  2  0
  3  1  1  6
  1  4  1  0
  5  4  1  1
  5  6  1  0
  8  5  1  1
  6  7  2  0
  6 15  1  0
  8  9  1  0
  9 10  1  6
 10 11  1  6
 11 12  1  0
 12 13  1  0
 12 14  2  0
 16 15  1  1
 16 17  1  0
 16 19  1  0
 17 18  2  0
 17 27  1  0
 19 20  1  6
 20 21  2  0
 20 22  1  0
 21 23  1  0
 22 24  2  0
 23 25  2  0
 24 25  1  0
 25 26  1  0
 28 27  1  1
 28 29  1  0
 28 31  1  0
 29 30  2  0
 29 33  1  0
 31 32  1  6
 34 33  1  1
 34 35  1  0
 37 34  1  1
 35 36  2  0
 37 38  1  0
 38 39  1  6
 39 40  1  6
 40 41  1  0
 41 42  1  0
 41 43  2  0
 14 44  1  0
 43 45  1  0
M  END
$$$$
