
     RDKit          3D

 45 45  0  0  0  0  0  0  0  0999 V2000
  -19.0174    8.5262   10.6288 C   0  0  0  0  0  0  0  0  0  0  0  0
  -19.6419    9.6198   10.6441 O   0  0  0  0  0  0  0  0  0  0  0  0
  -19.5871    7.4128   11.4318 C   0  0  0  0  0  0  0  0  0  0  0  0
  -17.8190    8.3125    9.8935 N   0  0  0  0  0  0  0  0  0  0  0  0
  -16.9623    9.4199    9.5827 C   0  0  2  0  0  0  0  0  0  0  0  0
  -17.0164    9.6540    8.1146 C   0  0  0  0  0  0  0  0  0  0  0  0
  -16.0388   10.2076    7.5262 O   0  0  0  0  0  0  0  0  0  0  0  0
  -15.5206    9.0966    9.9138 C   0  0  0  0  0  0  0  0  0  0  0  0
  -15.3247    8.9863   11.4204 C   0  0  0  0  0  0  0  0  0  0  0  0
  -14.9132   10.3562   11.9077 C   0  0  0  0  0  0  0  0  0  0  0  0
  -13.4694   10.5039   11.9133 N   0  0  0  0  0  0  0  0  0  0  0  0
  -12.8966   11.6321   12.5635 C   0  0  0  0  0  0  0  0  0  0  0  0
  -11.4712   11.7812   12.5922 N   0  0  0  0  0  0  0  0  0  0  0  0
  -13.6289   12.5270   13.1309 N   0  0  0  0  0  0  0  0  0  0  0  0
  -18.1124    9.2973    7.2859 N   0  0  0  0  0  0  0  0  0  0  0  0
  -18.1547    9.6980    5.8647 C   0  0  2  0  0  0  0  0  0  0  0  0
  -19.1108   10.7856    5.6916 C   0  0  0  0  0  0  0  0  0  0  0  0
  -20.1439   10.7783    6.4388 O   0  0  0  0  0  0  0  0  0  0  0  0
  -18.4488    8.4701    5.0521 C   0  0  0  0  0  0  0  0  0  0  0  0
  -18.3208    8.7383    3.6075 C   0  0  0  0  0  0  0  0  0  0  0  0
  -17.1382    9.2031    3.0933 C   0  0  0  0  0  0  0  0  0  0  0  0
  -19.3689    8.5434    2.7038 C   0  0  0  0  0  0  0  0  0  0  0  0
  -16.9962    9.4650    1.7328 C   0  0  0  0  0  0  0  0  0  0  0  0
  -19.2290    8.8009    1.3673 C   0  0  0  0  0  0  0  0  0  0  0  0
  -18.0521    9.2628    0.8540 C   0  0  0  0  0  0  0  0  0  0  0  0
  -17.9081    9.5271   -0.5132 O   0  0  0  0  0  0  0  0  0  0  0  0
  -19.0520   11.8695    4.7910 N   0  0  0  0  0  0  0  0  0  0  0  0
  -20.1936   12.6489    4.4042 C   0  0  2  0  0  0  0  0  0  0  0  0
  -20.8493   12.2510    3.1544 C   0  0  0  0  0  0  0  0  0  0  0  0
  -20.3143   11.7568    2.1490 O   0  0  0  0  0  0  0  0  0  0  0  0
  -19.6593   14.0837    4.1696 C   0  0  0  0  0  0  0  0  0  0  0  0
  -18.4220   14.1040    3.5877 O   0  0  0  0  0  0  0  0  0  0  0  0
  -22.2762   12.4659    3.1074 N   0  0  0  0  0  0  0  0  0  0  0  0
  -22.9815   12.3542    1.8251 C   0  0  2  0  0  0  0  0  0  0  0  0
  -22.8555   13.6216    1.1091 C   0  0  0  0  0  0  0  0  0  0  0  0
  -21.9357   13.7857    0.3299 O   0  0  0  0  0  0  0  0  0  0  0  0
  -24.4088   11.9845    2.1976 C   0  0  0  0  0  0  0  0  0  0  0  0
  -24.7235   10.5409    1.9886 C   0  0  0  0  0  0  0  0  0  0  0  0
  -23.8225    9.6134    2.7514 C   0  0  0  0  0  0  0  0  0  0  0  0
  -24.5052    8.7595    3.6641 N   0  0  0  0  0  0  0  0  0  0  0  0
  -25.7921    8.2245    3.4300 C   0  0  0  0  0  0  0  0  0  0  0  0
  -25.9372    7.1323    2.5505 N   0  0  0  0  0  0  0  0  0  0  0  0
  -26.8284    8.7143    3.9962 N   0  0  0  0  0  0  0  0  0  0  0  0
  -14.6198   12.4071   13.3972 H   0  0  0  0  0  0  0  0  0  0  0  0
  -26.8194    9.4292    4.7307 H   0  0  0  0  0  0  0  0  0  0  0  0
  1  2  2  0
  3  1  1  6
  1  4  1  0
  5  4  1  6
  5  6  1  0
  8  5  1  1
  6  7  2  0
  6 15  1  0
  8  9  1  0
  9 10  1  6
 10 11  1  6
 11 12  1  0
 12 13  1  0
 12 14  2  0
 16 15  1  1
 16 17  1  0
 16 19  1  0
 17 18  2  0
 17 27  1  0
 19 20  1  6
 20 21  2  0
 20 22  1  0
 21 23  1  0
 22 24  2  0
 23 25  2  0
 24 25  1  0
 25 26  1  0
 28 27  1  6
 28 29  1  0
 28 31  1  0
 29 30  2  0
 29 33  1  0
 31 32  1  6
 34 33  1  1
 34 35  1  0
 37 34  1  1
 35 36  2  0
 37 38  1  0
 38 39  1  6
 39 40  1  6
 40 41  1  0
 41 42  1  0
 41 43  2  0
 14 44  1  0
 43 45  1  0
M  END
$$$$
