
     RDKit          3D

 45 45  0  0  0  0  0  0  0  0999 V2000
  -19.8498    9.7673   10.6494 C   0  0  0  0  0  0  0  0  0  0  0  0
  -19.9250   10.2350   11.8163 O   0  0  0  0  0  0  0  0  0  0  0  0
  -20.5018    8.4542   10.4056 C   0  0  0  0  0  0  0  0  0  0  0  0
  -19.1849   10.4246    9.5777 N   0  0  0  0  0  0  0  0  0  0  0  0
  -17.7528   10.5002    9.5620 C   0  0  2  0  0  0  0  0  0  0  0  0
  -17.3249   10.9649    8.2152 C   0  0  0  0  0  0  0  0  0  0  0  0
  -16.4801   11.9049    8.1097 O   0  0  0  0  0  0  0  0  0  0  0  0
  -17.1377    9.1308    9.7600 C   0  0  0  0  0  0  0  0  0  0  0  0
  -15.9579    9.2032   10.7209 C   0  0  0  0  0  0  0  0  0  0  0  0
  -14.9867   10.2067   10.1436 C   0  0  0  0  0  0  0  0  0  0  0  0
  -13.9448    9.5520    9.3740 N   0  0  0  0  0  0  0  0  0  0  0  0
  -12.8286    8.9981   10.0603 C   0  0  0  0  0  0  0  0  0  0  0  0
  -12.0521    7.9710    9.4305 N   0  0  0  0  0  0  0  0  0  0  0  0
  -12.4966    9.3966   11.2394 N   0  0  0  0  0  0  0  0  0  0  0  0
  -17.8018   10.4249    6.9920 N   0  0  0  0  0  0  0  0  0  0  0  0
  -18.2228   11.3057    5.8834 C   0  0  2  0  0  0  0  0  0  0  0  0
  -19.6604   11.1767    5.6753 C   0  0  0  0  0  0  0  0  0  0  0  0
  -20.0777   10.0970    5.1404 O   0  0  0  0  0  0  0  0  0  0  0  0
  -17.3835   10.9661    4.6856 C   0  0  0  0  0  0  0  0  0  0  0  0
  -17.1521    9.5129    4.5862 C   0  0  0  0  0  0  0  0  0  0  0  0
  -15.9984    8.9615    5.0799 C   0  0  0  0  0  0  0  0  0  0  0  0
  -18.0680    8.6374    3.9961 C   0  0  0  0  0  0  0  0  0  0  0  0
  -15.7586    7.5923    4.9945 C   0  0  0  0  0  0  0  0  0  0  0  0
  -17.8321    7.2923    3.9124 C   0  0  0  0  0  0  0  0  0  0  0  0
  -16.6844    6.7421    4.4043 C   0  0  0  0  0  0  0  0  0  0  0  0
  -16.4418    5.3660    4.3186 O   0  0  0  0  0  0  0  0  0  0  0  0
  -20.6782   12.1013    5.9892 N   0  0  0  0  0  0  0  0  0  0  0  0
  -21.9289   12.1799    5.2894 C   0  0  2  0  0  0  0  0  0  0  0  0
  -21.8464   12.1867    3.8253 C   0  0  0  0  0  0  0  0  0  0  0  0
  -20.8352   12.0043    3.1285 O   0  0  0  0  0  0  0  0  0  0  0  0
  -22.5463   13.5428    5.6899 C   0  0  0  0  0  0  0  0  0  0  0  0
  -21.6500   14.5739    5.6275 O   0  0  0  0  0  0  0  0  0  0  0  0
  -23.0902   12.4350    3.1356 N   0  0  0  0  0  0  0  0  0  0  0  0
  -23.1165   12.4262    1.6680 C   0  0  2  0  0  0  0  0  0  0  0  0
  -24.1023   13.4030    1.2111 C   0  0  0  0  0  0  0  0  0  0  0  0
  -25.1928   13.4564    1.7480 O   0  0  0  0  0  0  0  0  0  0  0  0
  -23.4397   10.9881    1.2940 C   0  0  0  0  0  0  0  0  0  0  0  0
  -24.6905   10.4755    1.9259 C   0  0  0  0  0  0  0  0  0  0  0  0
  -25.8586   10.4177    0.9846 C   0  0  0  0  0  0  0  0  0  0  0  0
  -25.8155    9.3265    0.0704 N   0  0  0  0  0  0  0  0  0  0  0  0
  -26.8021    9.0821   -0.9113 C   0  0  0  0  0  0  0  0  0  0  0  0
  -26.9007    7.7994   -1.4879 N   0  0  0  0  0  0  0  0  0  0  0  0
  -27.6043   10.0024   -1.2907 N   0  0  0  0  0  0  0  0  0  0  0  0
  -12.5834   10.3647   11.5892 H   0  0  0  0  0  0  0  0  0  0  0  0
  -27.6074   10.9660   -0.9414 H   0  0  0  0  0  0  0  0  0  0  0  0
  1  2  2  0
  3  1  1  6
  1  4  1  0
  5  4  1  6
  5  6  1  0
  8  5  1  1
  6  7  2  0
  6 15  1  0
  8  9  1  0
  9 10  1  6
 10 11  1  6
 11 12  1  0
 12 13  1  0
 12 14  2  0
 16 15  1  1
 16 17  1  0
 16 19  1  0
 17 18  2  0
 17 27  1  0
 19 20  1  6
 20 21  2  0
 20 22  1  0
 21 23  1  0
 22 24  2  0
 23 25  2  0
 24 25  1  0
 25 26  1  0
 28 27  1  1
 28 29  1  0
 28 31  1  0
 29 30  2  0
 29 33  1  0
 31 32  1  6
 34 33  1  1
 34 35  1  0
 37 34  1  1
 35 36  2  0
 37 38  1  0
 38 39  1  6
 39 40  1  6
 40 41  1  0
 41 42  1  0
 41 43  2  0
 14 44  1  0
 43 45  1  0
M  END
$$$$
