
     RDKit          3D

 45 45  0  0  0  0  0  0  0  0999 V2000
  -24.0766    8.8358   11.5181 C   0  0  0  0  0  0  0  0  0  0  0  0
  -24.6957    9.7040   10.9086 O   0  0  0  0  0  0  0  0  0  0  0  0
  -24.8556    7.6990   12.1432 C   0  0  0  0  0  0  0  0  0  0  0  0
  -22.6728    8.7871   11.7020 N   0  0  0  0  0  0  0  0  0  0  0  0
  -21.7923    9.7353   11.1020 C   0  0  2  0  0  0  0  0  0  0  0  0
  -21.6229    9.4576    9.6712 C   0  0  0  0  0  0  0  0  0  0  0  0
  -22.4059    8.6497    9.0502 O   0  0  0  0  0  0  0  0  0  0  0  0
  -20.5359    9.9323   11.8519 C   0  0  0  0  0  0  0  0  0  0  0  0
  -19.7980    8.6754   12.1369 C   0  0  0  0  0  0  0  0  0  0  0  0
  -18.5138    8.7300   12.8680 C   0  0  0  0  0  0  0  0  0  0  0  0
  -17.3780    8.5772   11.9369 N   0  0  0  0  0  0  0  0  0  0  0  0
  -16.3119    7.7339   12.3144 C   0  0  0  0  0  0  0  0  0  0  0  0
  -16.4645    6.8888   13.4397 N   0  0  0  0  0  0  0  0  0  0  0  0
  -15.1910    7.7320   11.6336 N   0  0  0  0  0  0  0  0  0  0  0  0
  -20.5905   10.0581    8.9059 N   0  0  0  0  0  0  0  0  0  0  0  0
  -20.4732    9.8013    7.4828 C   0  0  2  0  0  0  0  0  0  0  0  0
  -19.3270   10.5881    6.8890 C   0  0  0  0  0  0  0  0  0  0  0  0
  -19.3167   11.8103    6.7374 O   0  0  0  0  0  0  0  0  0  0  0  0
  -21.6983   10.2071    6.7585 C   0  0  0  0  0  0  0  0  0  0  0  0
  -21.7234   10.0621    5.3134 C   0  0  0  0  0  0  0  0  0  0  0  0
  -22.1835    8.9295    4.7123 C   0  0  0  0  0  0  0  0  0  0  0  0
  -21.2497   11.0875    4.5104 C   0  0  0  0  0  0  0  0  0  0  0  0
  -22.1835    8.7938    3.3266 C   0  0  0  0  0  0  0  0  0  0  0  0
  -21.2452   10.9626    3.1207 C   0  0  0  0  0  0  0  0  0  0  0  0
  -21.7086    9.8212    2.5092 C   0  0  0  0  0  0  0  0  0  0  0  0
  -21.7171    9.6614    1.1317 O   0  0  0  0  0  0  0  0  0  0  0  0
  -18.1820    9.8311    6.4837 N   0  0  0  0  0  0  0  0  0  0  0  0
  -16.9708   10.3998    5.9592 C   0  0  2  0  0  0  0  0  0  0  0  0
  -17.1905   11.1252    4.6902 C   0  0  0  0  0  0  0  0  0  0  0  0
  -17.7091   10.4566    3.7305 O   0  0  0  0  0  0  0  0  0  0  0  0
  -15.9205    9.2930    5.7431 C   0  0  0  0  0  0  0  0  0  0  0  0
  -15.2499    9.1284    6.9315 O   0  0  0  0  0  0  0  0  0  0  0  0
  -16.8849   12.4686    4.4309 N   0  0  0  0  0  0  0  0  0  0  0  0
  -17.2134   13.1559    3.1760 C   0  0  2  0  0  0  0  0  0  0  0  0
  -16.8873   14.5681    3.3017 C   0  0  0  0  0  0  0  0  0  0  0  0
  -16.1128   15.0737    4.0760 O   0  0  0  0  0  0  0  0  0  0  0  0
  -18.5629   12.8194    2.6520 C   0  0  0  0  0  0  0  0  0  0  0  0
  -18.5202   12.4049    1.2080 C   0  0  0  0  0  0  0  0  0  0  0  0
  -19.8902   12.1021    0.6485 C   0  0  0  0  0  0  0  0  0  0  0  0
  -19.9613   10.7280    0.1958 N   0  0  0  0  0  0  0  0  0  0  0  0
  -19.4975   10.3518   -1.0924 C   0  0  0  0  0  0  0  0  0  0  0  0
  -18.9476   11.3703   -1.9564 N   0  0  0  0  0  0  0  0  0  0  0  0
  -19.5529    9.1423   -1.5027 N   0  0  0  0  0  0  0  0  0  0  0  0
  -15.1559    8.3200   10.7818 H   0  0  0  0  0  0  0  0  0  0  0  0
  -20.0460    8.4277   -0.9467 H   0  0  0  0  0  0  0  0  0  0  0  0
  1  2  2  0
  1  3  1  0
  1  4  1  0
  4  5  1  0
  5  6  1  0
  5  8  1  1
  6  7  2  0
  6 15  1  0
  8  9  1  0
  9 10  1  0
 10 11  1  0
 11 12  1  0
 12 13  1  0
 12 14  2  0
 15 16  1  0
 16 17  1  0
 16 19  1  6
 17 18  2  0
 17 27  1  0
 19 20  1  0
 20 21  2  0
 20 22  1  0
 21 23  1  0
 22 24  2  0
 23 25  2  0
 24 25  1  0
 25 26  1  0
 27 28  1  0
 28 29  1  0
 28 31  1  6
 29 30  2  0
 29 33  1  0
 31 32  1  0
 33 34  1  0
 34 35  1  0
 34 37  1  1
 35 36  2  0
 37 38  1  0
 38 39  1  0
 39 40  1  0
 40 41  1  0
 41 42  1  0
 41 43  2  0
 14 44  1  0
 43 45  1  0
M  END
$$$$
