
     RDKit          3D

 45 45  0  0  0  0  0  0  0  0999 V2000
  -13.8857    8.6195    9.1750 C   0  0  0  0  0  0  0  0  0  0  0  0
  -14.0082    7.4386    8.7548 O   0  0  0  0  0  0  0  0  0  0  0  0
  -12.5096    9.0839    9.4906 C   0  0  0  0  0  0  0  0  0  0  0  0
  -14.9800    9.5096    9.3562 N   0  0  0  0  0  0  0  0  0  0  0  0
  -16.2996    9.1125    8.9589 C   0  0  2  0  0  0  0  0  0  0  0  0
  -16.5811    9.7009    7.6220 C   0  0  0  0  0  0  0  0  0  0  0  0
  -15.6214   10.0127    6.8537 O   0  0  0  0  0  0  0  0  0  0  0  0
  -17.3402    9.6753    9.9041 C   0  0  0  0  0  0  0  0  0  0  0  0
  -18.7077    9.0643    9.6265 C   0  0  0  0  0  0  0  0  0  0  0  0
  -19.6581    9.6398   10.6507 C   0  0  0  0  0  0  0  0  0  0  0  0
  -19.4832    9.0106   11.9468 N   0  0  0  0  0  0  0  0  0  0  0  0
  -20.6285    8.5179   12.6317 C   0  0  0  0  0  0  0  0  0  0  0  0
  -20.4882    8.0062   13.9633 N   0  0  0  0  0  0  0  0  0  0  0  0
  -21.7941    8.5186   12.0834 N   0  0  0  0  0  0  0  0  0  0  0  0
  -17.8829    9.9534    7.1153 N   0  0  0  0  0  0  0  0  0  0  0  0
  -18.0788   10.5012    5.7575 C   0  0  2  0  0  0  0  0  0  0  0  0
  -19.5012   10.5145    5.4361 C   0  0  0  0  0  0  0  0  0  0  0  0
  -20.0784    9.3860    5.2974 O   0  0  0  0  0  0  0  0  0  0  0  0
  -17.2309    9.6981    4.8138 C   0  0  0  0  0  0  0  0  0  0  0  0
  -15.8029   10.0407    4.9503 C   0  0  0  0  0  0  0  0  0  0  0  0
  -14.9116    9.1122    5.4219 C   0  0  0  0  0  0  0  0  0  0  0  0
  -15.2892   11.2978    4.6198 C   0  0  0  0  0  0  0  0  0  0  0  0
  -13.5594    9.4151    5.5608 C   0  0  0  0  0  0  0  0  0  0  0  0
  -13.9607   11.5951    4.7564 C   0  0  0  0  0  0  0  0  0  0  0  0
  -13.0723   10.6714    5.2249 C   0  0  0  0  0  0  0  0  0  0  0  0
  -11.7129   10.9747    5.3656 O   0  0  0  0  0  0  0  0  0  0  0  0
  -20.3480   11.6274    5.2517 N   0  0  0  0  0  0  0  0  0  0  0  0
  -21.7265   11.5261    4.8648 C   0  0  2  0  0  0  0  0  0  0  0  0
  -21.9863   11.4671    3.4228 C   0  0  0  0  0  0  0  0  0  0  0  0
  -21.4974   12.1911    2.5406 O   0  0  0  0  0  0  0  0  0  0  0  0
  -22.3979   12.8281    5.3680 C   0  0  0  0  0  0  0  0  0  0  0  0
  -21.7058   13.9548    5.0192 O   0  0  0  0  0  0  0  0  0  0  0  0
  -22.9170   10.4469    3.0019 N   0  0  0  0  0  0  0  0  0  0  0  0
  -23.7145   10.6536    1.7871 C   0  0  2  0  0  0  0  0  0  0  0  0
  -23.8921   12.0893    1.5818 C   0  0  0  0  0  0  0  0  0  0  0  0
  -23.3226   12.6421    0.6597 O   0  0  0  0  0  0  0  0  0  0  0  0
  -25.0068    9.8918    2.0364 C   0  0  0  0  0  0  0  0  0  0  0  0
  -25.7809   10.4000    3.2065 C   0  0  0  0  0  0  0  0  0  0  0  0
  -27.0338    9.6201    3.4819 C   0  0  0  0  0  0  0  0  0  0  0  0
  -27.8753    9.4510    2.3454 N   0  0  0  0  0  0  0  0  0  0  0  0
  -29.1386    8.8192    2.3878 C   0  0  0  0  0  0  0  0  0  0  0  0
  -30.1114    9.2791    3.2987 N   0  0  0  0  0  0  0  0  0  0  0  0
  -29.4156    7.8354    1.6197 N   0  0  0  0  0  0  0  0  0  0  0  0
  -21.9870    8.7293   11.0906 H   0  0  0  0  0  0  0  0  0  0  0  0
  -28.7287    7.2041    1.1954 H   0  0  0  0  0  0  0  0  0  0  0  0
  1  2  2  0
  3  1  1  6
  1  4  1  0
  5  4  1  1
  5  6  1  0
  8  5  1  1
  6  7  2  0
  6 15  1  0
  8  9  1  0
  9 10  1  6
 10 11  1  6
 11 12  1  0
 12 13  1  0
 12 14  2  0
 16 15  1  1
 16 17  1  0
 16 19  1  0
 17 18  2  0
 17 27  1  0
 19 20  1  6
 20 21  2  0
 20 22  1  0
 21 23  1  0
 22 24  2  0
 23 25  2  0
 24 25  1  0
 25 26  1  0
 28 27  1  6
 28 29  1  0
 28 31  1  0
 29 30  2  0
 29 33  1  0
 31 32  1  6
 34 33  1  1
 34 35  1  0
 37 34  1  1
 35 36  2  0
 37 38  1  0
 38 39  1  6
 39 40  1  6
 40 41  1  0
 41 42  1  0
 41 43  2  0
 14 44  1  0
 43 45  1  0
M  END
$$$$
