
     RDKit          3D

 45 45  0  0  0  0  0  0  0  0999 V2000
  -12.9734    9.0387    9.8634 C   0  0  0  0  0  0  0  0  0  0  0  0
  -13.0420    8.1030    9.0233 O   0  0  0  0  0  0  0  0  0  0  0  0
  -11.6348    9.6420   10.0934 C   0  0  0  0  0  0  0  0  0  0  0  0
  -14.0941    9.5341   10.5853 N   0  0  0  0  0  0  0  0  0  0  0  0
  -15.4120    9.0609   10.2753 C   0  0  2  0  0  0  0  0  0  0  0  0
  -15.8030    9.6058    8.9475 C   0  0  0  0  0  0  0  0  0  0  0  0
  -15.6967   10.8486    8.7179 O   0  0  0  0  0  0  0  0  0  0  0  0
  -16.4232    9.5884   11.2713 C   0  0  0  0  0  0  0  0  0  0  0  0
  -17.7761    8.9169   11.0735 C   0  0  0  0  0  0  0  0  0  0  0  0
  -18.3487    8.6764   12.4511 C   0  0  0  0  0  0  0  0  0  0  0  0
  -18.2078    7.2872   12.8473 N   0  0  0  0  0  0  0  0  0  0  0  0
  -18.6385    6.8957   14.1453 C   0  0  0  0  0  0  0  0  0  0  0  0
  -18.7644    7.8850   15.1749 N   0  0  0  0  0  0  0  0  0  0  0  0
  -18.9187    5.6692   14.4212 N   0  0  0  0  0  0  0  0  0  0  0  0
  -16.3052    8.8221    7.8757 N   0  0  0  0  0  0  0  0  0  0  0  0
  -16.7483    9.4509    6.6146 C   0  0  2  0  0  0  0  0  0  0  0  0
  -18.1709    9.7612    6.6964 C   0  0  0  0  0  0  0  0  0  0  0  0
  -18.9103    8.9430    7.3365 O   0  0  0  0  0  0  0  0  0  0  0  0
  -16.3711    8.5322    5.4885 C   0  0  0  0  0  0  0  0  0  0  0  0
  -16.7387    9.1062    4.1806 C   0  0  0  0  0  0  0  0  0  0  0  0
  -15.9039    9.9975    3.5580 C   0  0  0  0  0  0  0  0  0  0  0  0
  -17.9279    8.7872    3.5192 C   0  0  0  0  0  0  0  0  0  0  0  0
  -16.2324   10.5532    2.3240 C   0  0  0  0  0  0  0  0  0  0  0  0
  -18.2503    9.3335    2.3069 C   0  0  0  0  0  0  0  0  0  0  0  0
  -17.4197   10.2201    1.6857 C   0  0  0  0  0  0  0  0  0  0  0  0
  -17.7489   10.7800    0.4456 O   0  0  0  0  0  0  0  0  0  0  0  0
  -18.8602   10.8651    6.1526 N   0  0  0  0  0  0  0  0  0  0  0  0
  -20.2608   10.8560    5.8390 C   0  0  2  0  0  0  0  0  0  0  0  0
  -20.6943   11.8042    4.8078 C   0  0  0  0  0  0  0  0  0  0  0  0
  -20.1471   12.8728    4.4913 O   0  0  0  0  0  0  0  0  0  0  0  0
  -20.9830   11.2805    7.1419 C   0  0  0  0  0  0  0  0  0  0  0  0
  -20.5059   12.4533    7.6588 O   0  0  0  0  0  0  0  0  0  0  0  0
  -21.8929   11.4364    4.0920 N   0  0  0  0  0  0  0  0  0  0  0  0
  -22.5215   12.4077    3.1888 C   0  0  2  0  0  0  0  0  0  0  0  0
  -23.0651   13.5051    3.9858 C   0  0  0  0  0  0  0  0  0  0  0  0
  -22.6728   13.6758    5.1247 O   0  0  0  0  0  0  0  0  0  0  0  0
  -23.5674   11.6092    2.4266 C   0  0  0  0  0  0  0  0  0  0  0  0
  -24.6254   11.0257    3.3022 C   0  0  0  0  0  0  0  0  0  0  0  0
  -24.7626    9.5368    3.1674 C   0  0  0  0  0  0  0  0  0  0  0  0
  -25.0240    9.0947    1.8390 N   0  0  0  0  0  0  0  0  0  0  0  0
  -26.3115    8.7681    1.3567 C   0  0  0  0  0  0  0  0  0  0  0  0
  -26.4622    7.6846    0.4674 N   0  0  0  0  0  0  0  0  0  0  0  0
  -27.3421    9.4385    1.7070 N   0  0  0  0  0  0  0  0  0  0  0  0
  -18.9309    4.8917   13.7411 H   0  0  0  0  0  0  0  0  0  0  0  0
  -27.3803   10.0999    2.4891 H   0  0  0  0  0  0  0  0  0  0  0  0
  1  2  2  0
  3  1  1  6
  1  4  1  0
  5  4  1  1
  5  6  1  0
  8  5  1  1
  6  7  2  0
  6 15  1  0
  8  9  1  0
  9 10  1  6
 10 11  1  6
 11 12  1  0
 12 13  1  0
 12 14  2  0
 16 15  1  1
 16 17  1  0
 16 19  1  0
 17 18  2  0
 17 27  1  0
 19 20  1  6
 20 21  2  0
 20 22  1  0
 21 23  1  0
 22 24  2  0
 23 25  2  0
 24 25  1  0
 25 26  1  0
 28 27  1  1
 28 29  1  0
 28 31  1  0
 29 30  2  0
 29 33  1  0
 31 32  1  6
 34 33  1  1
 34 35  1  0
 37 34  1  1
 35 36  2  0
 37 38  1  0
 38 39  1  6
 39 40  1  6
 40 41  1  0
 41 42  1  0
 41 43  2  0
 14 44  1  0
 43 45  1  0
M  END
$$$$
