
     RDKit          3D

 68 69  0  0  0  0  0  0  0  0999 V2000
  -14.3345  -28.9531   17.8117 O   0  0  0  0  0  0  0  0  0  0  0  0
  -15.4665  -31.4757   20.1735 C   0  0  2  0  0  0  0  0  0  0  0  0
  -15.8724  -32.7888   18.0741 O   0  0  0  0  0  0  0  0  0  0  0  0
  -17.3770  -31.0765   18.6524 C   0  0  1  0  0  0  0  0  0  0  0  0
  -16.5541  -29.9119   18.0645 C   0  0  2  0  0  0  0  0  0  0  0  0
   -0.2896  -26.2102   20.1941 C   0  0  0  0  0  0  0  0  0  0  0  0
   -1.6646  -25.9901   20.8033 C   0  0  0  0  0  0  0  0  0  0  0  0
   -1.7955  -24.5914   21.4062 C   0  0  0  0  0  0  0  0  0  0  0  0
   -2.8415  -23.7616   20.6607 C   0  0  0  0  0  0  0  0  0  0  0  0
   -2.6655  -22.2512   20.8358 C   0  0  0  0  0  0  0  0  0  0  0  0
   -3.6974  -21.4270   20.0644 C   0  0  0  0  0  0  0  0  0  0  0  0
   -3.5922  -21.6739   18.5549 C   0  0  0  0  0  0  0  0  0  0  0  0
   -4.7528  -21.0444   17.7765 C   0  0  0  0  0  0  0  0  0  0  0  0
   -5.8207  -22.0622   17.3613 C   0  0  0  0  0  0  0  0  0  0  0  0
   -7.1970  -21.4251   17.1408 C   0  0  0  0  0  0  0  0  0  0  0  0
   -8.3590  -22.2606   17.6844 C   0  0  0  0  0  0  0  0  0  0  0  0
   -8.7374  -23.4344   16.7692 C   0  0  0  0  0  0  0  0  0  0  0  0
  -10.2000  -23.8593   16.9430 C   0  0  0  0  0  0  0  0  0  0  0  0
  -10.5117  -25.1912   16.2526 C   0  0  0  0  0  0  0  0  0  0  0  0
  -12.0062  -25.5765   16.3196 C   0  0  1  0  0  0  0  0  0  0  0  0
  -12.6730  -25.0276   15.1821 O   0  0  0  0  0  0  0  0  0  0  0  0
  -12.2366  -27.1021   16.4274 C   0  0  1  0  0  0  0  0  0  0  0  0
  -11.3093  -27.7623   15.5539 O   0  0  0  0  0  0  0  0  0  0  0  0
  -12.2156  -27.6945   17.8665 C   0  0  2  0  0  0  0  0  0  0  0  0
  -12.9090  -29.0746   17.9407 C   0  0  0  0  0  0  0  0  0  0  0  0
  -15.0280  -30.1483   18.2079 C   0  0  2  0  0  0  0  0  0  0  0  0
  -16.9118  -28.6953   18.7636 O   0  0  0  0  0  0  0  0  0  0  0  0
  -18.2199  -31.6518   17.6364 O   0  0  0  0  0  0  0  0  0  0  0  0
  -14.6810  -30.4316   19.5627 O   0  0  0  0  0  0  0  0  0  0  0  0
  -14.5194  -32.4126   20.9290 C   0  0  0  0  0  0  0  0  0  0  0  0
  -13.5942  -33.0499   20.0586 O   0  0  0  0  0  0  0  0  0  0  0  0
  -16.4709  -32.1812   19.2255 C   0  0  2  0  0  0  0  0  0  0  0  0
  -15.6540  -34.1938   18.1488 C   0  0  0  0  0  0  0  0  0  0  0  0
  -16.7213  -34.8158   17.2844 C   0  0  0  0  0  0  0  0  0  0  0  0
  -17.0358  -34.2921   16.0276 C   0  0  0  0  0  0  0  0  0  0  0  0
  -17.9757  -34.9294   15.2103 C   0  0  0  0  0  0  0  0  0  0  0  0
  -18.6187  -36.0955   15.6374 C   0  0  0  0  0  0  0  0  0  0  0  0
  -19.5744  -36.8219   14.7378 C   0  0  0  0  0  0  0  0  0  0  0  0
  -18.3107  -36.6171   16.8974 C   0  0  0  0  0  0  0  0  0  0  0  0
  -17.3787  -35.9788   17.7160 C   0  0  0  0  0  0  0  0  0  0  0  0
  -12.7546  -26.7840   18.8864 N   0  0  0  0  0  0  0  0  0  0  0  0
  -12.3720  -26.8507   20.2057 C   0  0  0  0  0  0  0  0  0  0  0  0
  -11.4606  -27.5822   20.5786 O   0  0  0  0  0  0  0  0  0  0  0  0
  -13.1200  -25.9104   21.1340 C   0  0  0  0  0  0  0  0  0  0  0  0
  -12.4698  -24.5278   21.2017 C   0  0  0  0  0  0  0  0  0  0  0  0
  -11.0281  -24.5586   21.7213 C   0  0  0  0  0  0  0  0  0  0  0  0
  -10.7231  -23.4841   22.7778 C   0  0  0  0  0  0  0  0  0  0  0  0
   -9.2327  -23.3629   23.1199 C   0  0  0  0  0  0  0  0  0  0  0  0
   -8.9507  -22.1937   24.0726 C   0  0  0  0  0  0  0  0  0  0  0  0
   -9.0867  -20.8232   23.3984 C   0  0  0  0  0  0  0  0  0  0  0  0
   -8.9488  -19.6338   24.3563 C   0  0  0  0  0  0  0  0  0  0  0  0
   -9.4646  -18.3180   23.7629 C   0  0  0  0  0  0  0  0  0  0  0  0
   -8.4693  -17.7406   22.7573 C   0  0  0  0  0  0  0  0  0  0  0  0
   -8.9914  -16.4488   22.1233 C   0  0  0  0  0  0  0  0  0  0  0  0
   -8.0076  -15.9272   21.0759 C   0  0  0  0  0  0  0  0  0  0  0  0
   -8.5194  -14.6695   20.3732 C   0  0  0  0  0  0  0  0  0  0  0  0
   -7.5496  -13.4849   20.4808 C   0  0  0  0  0  0  0  0  0  0  0  0
   -6.1198  -13.8349   20.0556 C   0  0  0  0  0  0  0  0  0  0  0  0
   -5.6597  -13.1259   18.7785 C   0  0  0  0  0  0  0  0  0  0  0  0
   -5.1105  -14.0776   17.7123 C   0  0  0  0  0  0  0  0  0  0  0  0
   -6.0338  -15.2742   17.4527 C   0  0  0  0  0  0  0  0  0  0  0  0
   -5.5414  -16.1908   16.3294 C   0  0  0  0  0  0  0  0  0  0  0  0
   -5.3596  -17.6294   16.8272 C   0  0  0  0  0  0  0  0  0  0  0  0
   -6.6878  -18.3503   17.0940 C   0  0  0  0  0  0  0  0  0  0  0  0
   -6.5568  -19.8436   17.4193 C   0  0  0  0  0  0  0  0  0  0  0  0
   -7.8363  -20.6746   17.3278 C   0  0  0  0  0  0  0  0  0  0  0  0
   -7.6496  -22.1283   17.7659 C   0  0  0  0  0  0  0  0  0  0  0  0
   -8.9854  -22.7855   18.0708 C   0  0  0  0  0  0  0  0  0  0  0  0
 25  1  1  0
 26  1  1  1
  2 29  1  0
  2 30  1  6
 32  2  1  0
 32  3  1  6
  3 33  1  0
  5  4  1  0
  4 28  1  6
  4 32  1  0
 26  5  1  0
  5 27  1  1
  7  6  1  0
  8  7  1  0
  9  8  1  0
 10  9  1  0
 11 10  1  0
 12 11  1  0
 13 12  1  0
 14 13  1  0
 15 14  1  0
 16 15  1  0
 17 16  1  0
 18 17  1  0
 19 18  1  0
 20 19  1  0
 20 21  1  6
 22 20  1  0
 22 23  1  6
 24 22  1  0
 24 25  1  6
 24 41  1  0
 26 29  1  0
 30 31  1  0
 33 34  1  0
 34 35  2  0
 34 40  1  0
 35 36  1  0
 36 37  2  0
 37 38  1  0
 37 39  1  0
 39 40  2  0
 41 42  1  0
 42 43  2  0
 42 44  1  0
 44 45  1  0
 45 46  1  0
 46 47  1  0
 47 48  1  0
 48 49  1  0
 49 50  1  0
 50 51  1  0
 51 52  1  0
 52 53  1  0
 53 54  1  0
 54 55  1  0
 55 56  1  0
 56 57  1  0
 57 58  1  0
 58 59  1  0
 59 60  1  0
 60 61  1  0
 61 62  1  0
 62 63  1  0
 63 64  1  0
 64 65  1  0
 65 66  1  0
 66 67  1  0
 67 68  1  0
M  END
$$$$
