
     RDKit          3D

 68 69  0  0  0  0  0  0  0  0999 V2000
  -14.3454  -27.7748   19.8626 O   0  0  0  0  0  0  0  0  0  0  0  0
  -17.7880  -28.9338   19.6927 C   0  0  2  0  0  0  0  0  0  0  0  0
  -17.4193  -29.3634   22.1374 O   0  0  0  0  0  0  0  0  0  0  0  0
  -16.4806  -30.8432   20.5691 C   0  0  1  0  0  0  0  0  0  0  0  0
  -15.2202  -30.0064   20.2688 C   0  0  2  0  0  0  0  0  0  0  0  0
   -2.9492  -10.0930   23.8709 C   0  0  0  0  0  0  0  0  0  0  0  0
   -3.1436  -11.5889   24.0573 C   0  0  0  0  0  0  0  0  0  0  0  0
   -3.6825  -12.2487   22.7880 C   0  0  0  0  0  0  0  0  0  0  0  0
   -4.8015  -13.2400   23.1101 C   0  0  0  0  0  0  0  0  0  0  0  0
   -5.3617  -13.9548   21.8781 C   0  0  0  0  0  0  0  0  0  0  0  0
   -6.4920  -14.9319   22.2055 C   0  0  0  0  0  0  0  0  0  0  0  0
   -6.6634  -15.9775   21.0974 C   0  0  0  0  0  0  0  0  0  0  0  0
   -7.6945  -17.0517   21.4606 C   0  0  0  0  0  0  0  0  0  0  0  0
   -7.8830  -18.1012   20.3598 C   0  0  0  0  0  0  0  0  0  0  0  0
   -8.9142  -19.1731   20.7290 C   0  0  0  0  0  0  0  0  0  0  0  0
   -9.3085  -20.0798   19.5601 C   0  0  0  0  0  0  0  0  0  0  0  0
  -10.3748  -21.1190   19.9365 C   0  0  0  0  0  0  0  0  0  0  0  0
  -10.6916  -22.0728   18.7790 C   0  0  0  0  0  0  0  0  0  0  0  0
  -11.7587  -23.1094   19.1459 C   0  0  0  0  0  0  0  0  0  0  0  0
  -11.1913  -24.3188   19.9217 C   0  0  1  0  0  0  0  0  0  0  0  0
  -10.5415  -23.8432   21.1013 O   0  0  0  0  0  0  0  0  0  0  0  0
  -12.2625  -25.3828   20.2571 C   0  0  1  0  0  0  0  0  0  0  0  0
  -12.8485  -25.0509   21.5240 O   0  0  0  0  0  0  0  0  0  0  0  0
  -13.3360  -25.6386   19.1596 C   0  0  2  0  0  0  0  0  0  0  0  0
  -14.5813  -26.3653   19.7180 C   0  0  0  0  0  0  0  0  0  0  0  0
  -15.5057  -28.4832   20.3300 C   0  0  2  0  0  0  0  0  0  0  0  0
  -14.7463  -30.3457   18.9433 O   0  0  0  0  0  0  0  0  0  0  0  0
  -16.2511  -31.6967   21.7060 O   0  0  0  0  0  0  0  0  0  0  0  0
  -16.6040  -28.1361   19.4876 O   0  0  0  0  0  0  0  0  0  0  0  0
  -18.9989  -27.9972   19.7371 C   0  0  0  0  0  0  0  0  0  0  0  0
  -18.8063  -26.9202   20.6441 O   0  0  0  0  0  0  0  0  0  0  0  0
  -17.7003  -29.9503   20.8607 C   0  0  2  0  0  0  0  0  0  0  0  0
  -18.3455  -29.6547   23.1788 C   0  0  0  0  0  0  0  0  0  0  0  0
  -18.3828  -28.4206   24.0441 C   0  0  0  0  0  0  0  0  0  0  0  0
  -19.3315  -28.2728   25.0595 C   0  0  0  0  0  0  0  0  0  0  0  0
  -19.3006  -27.1545   25.8997 C   0  0  0  0  0  0  0  0  0  0  0  0
  -18.3255  -26.1655   25.7357 C   0  0  0  0  0  0  0  0  0  0  0  0
  -18.2442  -25.0003   26.6770 C   0  0  0  0  0  0  0  0  0  0  0  0
  -17.3798  -26.3080   24.7160 C   0  0  0  0  0  0  0  0  0  0  0  0
  -17.4138  -27.4192   23.8733 C   0  0  0  0  0  0  0  0  0  0  0  0
  -12.8134  -26.3340   17.9750 N   0  0  0  0  0  0  0  0  0  0  0  0
  -11.4865  -26.2796   17.6178 C   0  0  0  0  0  0  0  0  0  0  0  0
  -10.6953  -25.5303   18.1811 O   0  0  0  0  0  0  0  0  0  0  0  0
  -11.0798  -27.2552   16.5278 C   0  0  0  0  0  0  0  0  0  0  0  0
  -11.2302  -26.6542   15.1295 C   0  0  0  0  0  0  0  0  0  0  0  0
  -10.1163  -25.6645   14.7701 C   0  0  0  0  0  0  0  0  0  0  0  0
   -8.9462  -26.2962   13.9983 C   0  0  0  0  0  0  0  0  0  0  0  0
   -7.8691  -25.2875   13.5798 C   0  0  0  0  0  0  0  0  0  0  0  0
   -6.6211  -25.9757   13.0112 C   0  0  0  0  0  0  0  0  0  0  0  0
   -5.3847  -25.0688   13.0063 C   0  0  0  0  0  0  0  0  0  0  0  0
   -4.9426  -24.6145   11.6100 C   0  0  0  0  0  0  0  0  0  0  0  0
   -3.8802  -25.5267   10.9868 C   0  0  0  0  0  0  0  0  0  0  0  0
   -3.6546  -26.7727   11.8423 C   0  0  0  0  0  0  0  0  0  0  0  0
   -2.5366  -27.6521   11.2764 C   0  0  0  0  0  0  0  0  0  0  0  0
   -2.9562  -29.1221   11.2754 C   0  0  0  0  0  0  0  0  0  0  0  0
   -3.7882  -29.4881   10.0461 C   0  0  0  0  0  0  0  0  0  0  0  0
   -3.9391  -31.0031    9.8526 C   0  0  0  0  0  0  0  0  0  0  0  0
   -5.0634  -31.3786    8.8818 C   0  0  0  0  0  0  0  0  0  0  0  0
   -6.0096  -32.4588    9.4140 C   0  0  0  0  0  0  0  0  0  0  0  0
   -7.4594  -32.2858    8.9529 C   0  0  0  0  0  0  0  0  0  0  0  0
   -7.5857  -31.3868    7.7170 C   0  0  0  0  0  0  0  0  0  0  0  0
   -8.0319  -32.1386    6.4601 C   0  0  0  0  0  0  0  0  0  0  0  0
   -9.5284  -31.9368    6.1950 C   0  0  0  0  0  0  0  0  0  0  0  0
   -9.8968  -32.0221    4.7077 C   0  0  0  0  0  0  0  0  0  0  0  0
  -10.6769  -33.2808    4.3079 C   0  0  0  0  0  0  0  0  0  0  0  0
  -12.0131  -33.0571    3.6002 C   0  0  0  0  0  0  0  0  0  0  0  0
  -13.2076  -33.6367    4.3599 C   0  0  0  0  0  0  0  0  0  0  0  0
  -14.5210  -33.2026    3.7307 C   0  0  0  0  0  0  0  0  0  0  0  0
 25  1  1  0
 26  1  1  6
  2 29  1  0
  2 30  1  1
 32  2  1  0
 32  3  1  1
  3 33  1  0
  5  4  1  0
  4 28  1  1
  4 32  1  0
 26  5  1  0
  5 27  1  6
  7  6  1  0
  8  7  1  0
  9  8  1  0
 10  9  1  0
 11 10  1  0
 12 11  1  0
 13 12  1  0
 14 13  1  0
 15 14  1  0
 16 15  1  0
 17 16  1  0
 18 17  1  0
 19 18  1  0
 20 19  1  0
 20 21  1  1
 22 20  1  0
 22 23  1  1
 24 22  1  0
 24 25  1  1
 24 41  1  0
 26 29  1  0
 30 31  1  0
 33 34  1  0
 34 35  2  0
 34 40  1  0
 35 36  1  0
 36 37  2  0
 37 38  1  0
 37 39  1  0
 39 40  2  0
 41 42  1  0
 42 43  2  0
 42 44  1  0
 44 45  1  0
 45 46  1  0
 46 47  1  0
 47 48  1  0
 48 49  1  0
 49 50  1  0
 50 51  1  0
 51 52  1  0
 52 53  1  0
 53 54  1  0
 54 55  1  0
 55 56  1  0
 56 57  1  0
 57 58  1  0
 58 59  1  0
 59 60  1  0
 60 61  1  0
 61 62  1  0
 62 63  1  0
 63 64  1  0
 64 65  1  0
 65 66  1  0
 66 67  1  0
 67 68  1  0
M  END
$$$$
