
     RDKit          3D

 68 69  0  0  0  0  0  0  0  0999 V2000
  -10.3387  -20.6467   20.7963 O   0  0  0  0  0  0  0  0  0  0  0  0
  -13.6586  -19.9589   22.1110 C   0  0  2  0  0  0  0  0  0  0  0  0
  -13.3896  -17.8469   20.7828 O   0  0  0  0  0  0  0  0  0  0  0  0
  -12.2469  -18.0570   22.8274 C   0  0  1  0  0  0  0  0  0  0  0  0
  -11.0458  -18.8535   22.2776 C   0  0  2  0  0  0  0  0  0  0  0  0
   -3.6462  -24.4583   17.0888 C   0  0  0  0  0  0  0  0  0  0  0  0
   -3.6411  -23.1330   17.8331 C   0  0  0  0  0  0  0  0  0  0  0  0
   -4.8687  -22.9881   18.7324 C   0  0  0  0  0  0  0  0  0  0  0  0
   -4.7385  -21.7781   19.6584 C   0  0  0  0  0  0  0  0  0  0  0  0
   -5.7127  -21.8008   20.8388 C   0  0  0  0  0  0  0  0  0  0  0  0
   -6.1102  -20.4058   21.3238 C   0  0  0  0  0  0  0  0  0  0  0  0
   -5.1763  -19.9154   22.4365 C   0  0  0  0  0  0  0  0  0  0  0  0
   -5.7518  -18.7159   23.1975 C   0  0  0  0  0  0  0  0  0  0  0  0
   -5.8692  -18.9606   24.7058 C   0  0  0  0  0  0  0  0  0  0  0  0
   -7.2810  -18.7021   25.2431 C   0  0  0  0  0  0  0  0  0  0  0  0
   -7.6442  -19.5547   26.4616 C   0  0  0  0  0  0  0  0  0  0  0  0
   -8.4123  -20.8332   26.0955 C   0  0  0  0  0  0  0  0  0  0  0  0
   -7.6554  -22.1030   26.5013 C   0  0  0  0  0  0  0  0  0  0  0  0
   -8.3827  -23.3828   26.0761 C   0  0  0  0  0  0  0  0  0  0  0  0
   -8.5676  -23.4984   24.5468 C   0  0  1  0  0  0  0  0  0  0  0  0
   -8.9509  -24.8375   24.2309 O   0  0  0  0  0  0  0  0  0  0  0  0
   -9.5757  -22.4732   23.9770 C   0  0  1  0  0  0  0  0  0  0  0  0
   -9.8852  -21.5230   25.0066 O   0  0  0  0  0  0  0  0  0  0  0  0
   -9.1668  -21.7846   22.6424 C   0  0  2  0  0  0  0  0  0  0  0  0
  -10.2919  -21.8472   21.5837 C   0  0  0  0  0  0  0  0  0  0  0  0
  -11.4599  -19.8113   21.1302 C   0  0  2  0  0  0  0  0  0  0  0  0
  -10.4737  -19.6296   23.3580 O   0  0  0  0  0  0  0  0  0  0  0  0
  -12.0097  -16.6432   22.6912 O   0  0  0  0  0  0  0  0  0  0  0  0
  -12.5355  -20.6570   21.5351 O   0  0  0  0  0  0  0  0  0  0  0  0
  -14.9438  -20.5281   21.5028 C   0  0  0  0  0  0  0  0  0  0  0  0
  -14.6885  -21.2747   20.3208 O   0  0  0  0  0  0  0  0  0  0  0  0
  -13.5506  -18.4118   22.0897 C   0  0  2  0  0  0  0  0  0  0  0  0
  -13.8875  -16.5247   20.6055 C   0  0  0  0  0  0  0  0  0  0  0  0
  -13.7140  -16.2202   19.1392 C   0  0  0  0  0  0  0  0  0  0  0  0
  -12.4920  -16.4259   18.4933 C   0  0  0  0  0  0  0  0  0  0  0  0
  -12.3738  -16.2089   17.1162 C   0  0  0  0  0  0  0  0  0  0  0  0
  -13.4722  -15.7791   16.3648 C   0  0  0  0  0  0  0  0  0  0  0  0
  -13.3703  -15.6125   14.8774 C   0  0  0  0  0  0  0  0  0  0  0  0
  -14.6938  -15.5659   17.0102 C   0  0  0  0  0  0  0  0  0  0  0  0
  -14.8111  -15.7754   18.3844 C   0  0  0  0  0  0  0  0  0  0  0  0
   -7.8997  -22.2809   22.0874 N   0  0  0  0  0  0  0  0  0  0  0  0
   -7.8553  -23.1516   21.0238 C   0  0  0  0  0  0  0  0  0  0  0  0
   -8.5092  -24.1894   21.0098 O   0  0  0  0  0  0  0  0  0  0  0  0
   -6.9909  -22.6945   19.8622 C   0  0  0  0  0  0  0  0  0  0  0  0
   -5.5063  -22.9714   20.1035 C   0  0  0  0  0  0  0  0  0  0  0  0
   -4.6490  -22.8334   18.8404 C   0  0  0  0  0  0  0  0  0  0  0  0
   -5.4617  -22.8029   17.5355 C   0  0  0  0  0  0  0  0  0  0  0  0
   -4.7849  -23.5379   16.3717 C   0  0  0  0  0  0  0  0  0  0  0  0
   -5.5507  -23.3638   15.0535 C   0  0  0  0  0  0  0  0  0  0  0  0
   -4.6290  -23.2610   13.8324 C   0  0  0  0  0  0  0  0  0  0  0  0
   -4.5918  -24.5239   12.9634 C   0  0  0  0  0  0  0  0  0  0  0  0
   -3.9542  -24.2921   11.5889 C   0  0  0  0  0  0  0  0  0  0  0  0
   -5.0219  -24.1317   10.5074 C   0  0  0  0  0  0  0  0  0  0  0  0
   -4.9378  -25.2454    9.4605 C   0  0  0  0  0  0  0  0  0  0  0  0
   -3.9838  -24.8529    8.3323 C   0  0  0  0  0  0  0  0  0  0  0  0
   -3.7079  -26.0124    7.3747 C   0  0  0  0  0  0  0  0  0  0  0  0
   -4.4045  -27.3146    7.7924 C   0  0  0  0  0  0  0  0  0  0  0  0
   -4.3770  -28.3904    6.7017 C   0  0  0  0  0  0  0  0  0  0  0  0
   -5.1281  -29.6722    7.0736 C   0  0  0  0  0  0  0  0  0  0  0  0
   -4.3696  -30.5632    8.0609 C   0  0  0  0  0  0  0  0  0  0  0  0
   -5.0075  -30.5810    9.4553 C   0  0  0  0  0  0  0  0  0  0  0  0
   -6.1082  -31.6341    9.6081 C   0  0  0  0  0  0  0  0  0  0  0  0
   -5.5345  -32.9689   10.0978 C   0  0  0  0  0  0  0  0  0  0  0  0
   -5.1270  -32.9466   11.5771 C   0  0  0  0  0  0  0  0  0  0  0  0
   -4.8601  -34.3257   12.1932 C   0  0  0  0  0  0  0  0  0  0  0  0
   -3.4115  -34.6330   12.5716 C   0  0  0  0  0  0  0  0  0  0  0  0
   -3.1781  -36.0985   12.9430 C   0  0  0  0  0  0  0  0  0  0  0  0
   -1.7138  -36.3591   13.2547 C   0  0  0  0  0  0  0  0  0  0  0  0
 25  1  1  0
 26  1  1  1
  2 29  1  0
  2 30  1  6
 32  2  1  0
 32  3  1  6
  3 33  1  0
  5  4  1  0
  4 28  1  6
  4 32  1  0
 26  5  1  0
  5 27  1  1
  7  6  1  0
  8  7  1  0
  9  8  1  0
 10  9  1  0
 11 10  1  0
 12 11  1  0
 13 12  1  0
 14 13  1  0
 15 14  1  0
 16 15  1  0
 17 16  1  0
 18 17  1  0
 19 18  1  0
 20 19  1  0
 20 21  1  1
 22 20  1  0
 22 23  1  1
 24 22  1  0
 24 25  1  6
 24 41  1  0
 26 29  1  0
 30 31  1  0
 33 34  1  0
 34 35  2  0
 34 40  1  0
 35 36  1  0
 36 37  2  0
 37 38  1  0
 37 39  1  0
 39 40  2  0
 41 42  1  0
 42 43  2  0
 42 44  1  0
 44 45  1  0
 45 46  1  0
 46 47  1  0
 47 48  1  0
 48 49  1  0
 49 50  1  0
 50 51  1  0
 51 52  1  0
 52 53  1  0
 53 54  1  0
 54 55  1  0
 55 56  1  0
 56 57  1  0
 57 58  1  0
 58 59  1  0
 59 60  1  0
 60 61  1  0
 61 62  1  0
 62 63  1  0
 63 64  1  0
 64 65  1  0
 65 66  1  0
 66 67  1  0
 67 68  1  0
M  END
$$$$
