
     RDKit          3D

 68 69  0  0  0  0  0  0  0  0999 V2000
  -12.9176  -27.6132   18.3619 O   0  0  0  0  0  0  0  0  0  0  0  0
  -16.4889  -28.0589   18.8818 C   0  0  2  0  0  0  0  0  0  0  0  0
  -16.0303  -26.6829   20.9295 O   0  0  0  0  0  0  0  0  0  0  0  0
  -15.3992  -28.9483   20.9177 C   0  0  1  0  0  0  0  0  0  0  0  0
  -14.0586  -28.7545   20.1800 C   0  0  2  0  0  0  0  0  0  0  0  0
   -5.1154  -11.9966   27.0892 C   0  0  0  0  0  0  0  0  0  0  0  0
   -4.8466  -13.2062   26.2089 C   0  0  0  0  0  0  0  0  0  0  0  0
   -6.1453  -13.8855   25.7746 C   0  0  0  0  0  0  0  0  0  0  0  0
   -5.8653  -15.1772   25.0051 C   0  0  0  0  0  0  0  0  0  0  0  0
   -7.1206  -16.0041   24.7166 C   0  0  0  0  0  0  0  0  0  0  0  0
   -6.8301  -17.3071   23.9702 C   0  0  0  0  0  0  0  0  0  0  0  0
   -8.1150  -18.1060   23.7226 C   0  0  0  0  0  0  0  0  0  0  0  0
   -7.8628  -19.3857   22.9177 C   0  0  0  0  0  0  0  0  0  0  0  0
   -7.1603  -20.4787   23.7304 C   0  0  0  0  0  0  0  0  0  0  0  0
   -7.3154  -21.8728   23.1130 C   0  0  0  0  0  0  0  0  0  0  0  0
   -8.3056  -21.9254   21.9466 C   0  0  0  0  0  0  0  0  0  0  0  0
   -7.7384  -22.6303   20.7056 C   0  0  0  0  0  0  0  0  0  0  0  0
   -8.2299  -24.0771   20.5830 C   0  0  0  0  0  0  0  0  0  0  0  0
   -9.1079  -24.2975   19.3467 C   0  0  0  0  0  0  0  0  0  0  0  0
   -9.6631  -25.7353   19.2428 C   0  0  1  0  0  0  0  0  0  0  0  0
   -9.0549  -26.5363   20.2569 O   0  0  0  0  0  0  0  0  0  0  0  0
  -11.2063  -25.7984   19.3232 C   0  0  1  0  0  0  0  0  0  0  0  0
  -11.6286  -25.0729   20.4869 O   0  0  0  0  0  0  0  0  0  0  0  0
  -11.9741  -25.3583   18.0429 C   0  0  2  0  0  0  0  0  0  0  0  0
  -12.8385  -26.4993   17.4584 C   0  0  0  0  0  0  0  0  0  0  0  0
  -14.1315  -27.6137   19.1318 C   0  0  2  0  0  0  0  0  0  0  0  0
  -13.7182  -29.9919   19.5093 O   0  0  0  0  0  0  0  0  0  0  0  0
  -15.2168  -28.7704   22.3350 O   0  0  0  0  0  0  0  0  0  0  0  0
  -15.2232  -27.8145   18.2350 O   0  0  0  0  0  0  0  0  0  0  0  0
  -17.5573  -27.2085   18.1882 C   0  0  0  0  0  0  0  0  0  0  0  0
  -18.8525  -27.4375   18.7263 O   0  0  0  0  0  0  0  0  0  0  0  0
  -16.4668  -27.9526   20.4289 C   0  0  2  0  0  0  0  0  0  0  0  0
  -17.0149  -25.8998   21.5965 C   0  0  0  0  0  0  0  0  0  0  0  0
  -16.9612  -26.3272   23.0413 C   0  0  0  0  0  0  0  0  0  0  0  0
  -15.8461  -26.0564   23.8387 C   0  0  0  0  0  0  0  0  0  0  0  0
  -15.8479  -26.3943   25.1964 C   0  0  0  0  0  0  0  0  0  0  0  0
  -16.9607  -27.0115   25.7767 C   0  0  0  0  0  0  0  0  0  0  0  0
  -16.9960  -27.3121   27.2459 C   0  0  0  0  0  0  0  0  0  0  0  0
  -18.0746  -27.2896   24.9790 C   0  0  0  0  0  0  0  0  0  0  0  0
  -18.0713  -26.9594   23.6236 C   0  0  0  0  0  0  0  0  0  0  0  0
  -11.1085  -24.7764   17.0076 N   0  0  0  0  0  0  0  0  0  0  0  0
  -11.5714  -24.4748   15.7482 C   0  0  0  0  0  0  0  0  0  0  0  0
  -11.9129  -23.3378   15.4397 O   0  0  0  0  0  0  0  0  0  0  0  0
  -11.5640  -25.6375   14.7717 C   0  0  0  0  0  0  0  0  0  0  0  0
  -10.3199  -25.6365   13.8823 C   0  0  0  0  0  0  0  0  0  0  0  0
   -9.9938  -24.2589   13.2945 C   0  0  0  0  0  0  0  0  0  0  0  0
  -10.0934  -24.1958   11.7615 C   0  0  0  0  0  0  0  0  0  0  0  0
   -9.4461  -25.3924   11.0529 C   0  0  0  0  0  0  0  0  0  0  0  0
   -8.7882  -24.9926    9.7257 C   0  0  0  0  0  0  0  0  0  0  0  0
   -7.4958  -24.1891    9.9139 C   0  0  0  0  0  0  0  0  0  0  0  0
   -6.5953  -24.1454    8.6735 C   0  0  0  0  0  0  0  0  0  0  0  0
   -5.4324  -25.1420    8.7365 C   0  0  0  0  0  0  0  0  0  0  0  0
   -5.6789  -26.3338    7.8124 C   0  0  0  0  0  0  0  0  0  0  0  0
   -4.3660  -26.9546    7.3281 C   0  0  0  0  0  0  0  0  0  0  0  0
   -4.6392  -28.0938    6.3459 C   0  0  0  0  0  0  0  0  0  0  0  0
   -3.4857  -29.0953    6.2821 C   0  0  0  0  0  0  0  0  0  0  0  0
   -2.6504  -29.1316    7.5691 C   0  0  0  0  0  0  0  0  0  0  0  0
   -2.8452  -30.4176    8.3789 C   0  0  0  0  0  0  0  0  0  0  0  0
   -4.3062  -30.7186    8.7260 C   0  0  0  0  0  0  0  0  0  0  0  0
   -4.5730  -32.1955    9.0289 C   0  0  0  0  0  0  0  0  0  0  0  0
   -6.0487  -32.4820    9.3319 C   0  0  0  0  0  0  0  0  0  0  0  0
   -6.3636  -33.9739    9.4700 C   0  0  0  0  0  0  0  0  0  0  0  0
   -7.0616  -34.2725   10.8020 C   0  0  0  0  0  0  0  0  0  0  0  0
   -7.4795  -35.7416   10.9507 C   0  0  0  0  0  0  0  0  0  0  0  0
   -8.9805  -36.0056   10.7766 C   0  0  0  0  0  0  0  0  0  0  0  0
   -9.9054  -35.3938   11.8284 C   0  0  0  0  0  0  0  0  0  0  0  0
  -11.3884  -35.6557   11.5598 C   0  0  0  0  0  0  0  0  0  0  0  0
  -11.6285  -37.1059   11.1745 C   0  0  0  0  0  0  0  0  0  0  0  0
 25  1  1  0
 26  1  1  6
  2 29  1  0
  2 30  1  6
 32  2  1  0
 32  3  1  6
  3 33  1  0
  5  4  1  0
  4 28  1  1
  4 32  1  0
 26  5  1  0
  5 27  1  6
  7  6  1  0
  8  7  1  0
  9  8  1  0
 10  9  1  0
 11 10  1  0
 12 11  1  0
 13 12  1  0
 14 13  1  0
 15 14  1  0
 16 15  1  0
 17 16  1  0
 18 17  1  0
 19 18  1  0
 20 19  1  0
 20 21  1  1
 22 20  1  0
 22 23  1  1
 24 22  1  0
 24 25  1  6
 24 41  1  0
 26 29  1  0
 30 31  1  0
 33 34  1  0
 34 35  2  0
 34 40  1  0
 35 36  1  0
 36 37  2  0
 37 38  1  0
 37 39  1  0
 39 40  2  0
 41 42  1  0
 42 43  2  0
 42 44  1  0
 44 45  1  0
 45 46  1  0
 46 47  1  0
 47 48  1  0
 48 49  1  0
 49 50  1  0
 50 51  1  0
 51 52  1  0
 52 53  1  0
 53 54  1  0
 54 55  1  0
 55 56  1  0
 56 57  1  0
 57 58  1  0
 58 59  1  0
 59 60  1  0
 60 61  1  0
 61 62  1  0
 62 63  1  0
 63 64  1  0
 64 65  1  0
 65 66  1  0
 66 67  1  0
 67 68  1  0
M  END
$$$$
