
     RDKit          3D

 68 69  0  0  0  0  0  0  0  0999 V2000
  -15.1974  -25.8014   19.5160 O   0  0  0  0  0  0  0  0  0  0  0  0
  -16.2892  -29.2457   19.9257 C   0  0  2  0  0  0  0  0  0  0  0  0
  -16.2551  -29.2105   17.4169 O   0  0  0  0  0  0  0  0  0  0  0  0
  -18.0266  -28.1519   18.5445 C   0  0  1  0  0  0  0  0  0  0  0  0
  -17.2908  -26.8254   18.8238 C   0  0  2  0  0  0  0  0  0  0  0  0
   -3.3900  -26.5701   26.0004 C   0  0  0  0  0  0  0  0  0  0  0  0
   -3.0428  -25.1653   25.5353 C   0  0  0  0  0  0  0  0  0  0  0  0
   -2.3258  -25.1807   24.1853 C   0  0  0  0  0  0  0  0  0  0  0  0
   -1.9847  -23.7638   23.7220 C   0  0  0  0  0  0  0  0  0  0  0  0
   -3.1238  -22.7614   23.9227 C   0  0  0  0  0  0  0  0  0  0  0  0
   -2.8647  -21.4081   23.2589 C   0  0  0  0  0  0  0  0  0  0  0  0
   -4.1383  -20.5555   23.2157 C   0  0  0  0  0  0  0  0  0  0  0  0
   -4.9725  -20.8127   21.9559 C   0  0  0  0  0  0  0  0  0  0  0  0
   -5.2961  -22.2952   21.7411 C   0  0  0  0  0  0  0  0  0  0  0  0
   -6.7757  -22.6214   21.9708 C   0  0  0  0  0  0  0  0  0  0  0  0
   -7.1349  -24.0850   21.7017 C   0  0  0  0  0  0  0  0  0  0  0  0
   -8.4537  -24.2504   20.9322 C   0  0  0  0  0  0  0  0  0  0  0  0
   -9.1596  -25.5699   21.2647 C   0  0  0  0  0  0  0  0  0  0  0  0
  -10.5406  -25.6796   20.6099 C   0  0  0  0  0  0  0  0  0  0  0  0
  -11.2658  -27.0039   20.9368 C   0  0  1  0  0  0  0  0  0  0  0  0
  -10.9856  -27.3580   22.2918 O   0  0  0  0  0  0  0  0  0  0  0  0
  -12.7884  -26.9447   20.6719 C   0  0  1  0  0  0  0  0  0  0  0  0
  -13.3537  -28.2234   20.9947 O   0  0  0  0  0  0  0  0  0  0  0  0
  -13.5535  -25.7727   21.3526 C   0  0  2  0  0  0  0  0  0  0  0  0
  -15.0437  -25.7310   20.9425 C   0  0  0  0  0  0  0  0  0  0  0  0
  -15.7776  -27.0438   19.0844 C   0  0  2  0  0  0  0  0  0  0  0  0
  -17.8863  -26.2040   19.9883 O   0  0  0  0  0  0  0  0  0  0  0  0
  -18.6537  -28.1090   17.2489 O   0  0  0  0  0  0  0  0  0  0  0  0
  -15.5720  -28.0088   20.1153 O   0  0  0  0  0  0  0  0  0  0  0  0
  -15.3339  -30.4068   20.2174 C   0  0  0  0  0  0  0  0  0  0  0  0
  -15.1628  -31.2524   19.0881 O   0  0  0  0  0  0  0  0  0  0  0  0
  -17.0672  -29.3550   18.5885 C   0  0  2  0  0  0  0  0  0  0  0  0
  -16.7759  -29.7777   16.2192 C   0  0  0  0  0  0  0  0  0  0  0  0
  -15.6142  -29.8348   15.2599 C   0  0  0  0  0  0  0  0  0  0  0  0
  -15.4659  -30.8932   14.3596 C   0  0  0  0  0  0  0  0  0  0  0  0
  -14.4230  -30.8882   13.4269 C   0  0  0  0  0  0  0  0  0  0  0  0
  -13.5105  -29.8294   13.3825 C   0  0  0  0  0  0  0  0  0  0  0  0
  -12.4332  -29.7841   12.3396 C   0  0  0  0  0  0  0  0  0  0  0  0
  -13.6529  -28.7730   14.2870 C   0  0  0  0  0  0  0  0  0  0  0  0
  -14.6883  -28.7801   15.2219 C   0  0  0  0  0  0  0  0  0  0  0  0
  -12.9205  -24.4614   21.1537 N   0  0  0  0  0  0  0  0  0  0  0  0
  -12.4671  -23.6984   22.2042 C   0  0  0  0  0  0  0  0  0  0  0  0
  -12.6106  -24.0522   23.3699 O   0  0  0  0  0  0  0  0  0  0  0  0
  -11.7308  -22.4331   21.8010 C   0  0  0  0  0  0  0  0  0  0  0  0
  -12.5795  -21.5331   20.9016 C   0  0  0  0  0  0  0  0  0  0  0  0
  -12.0161  -20.1151   20.7550 C   0  0  0  0  0  0  0  0  0  0  0  0
  -12.8204  -19.2207   19.7974 C   0  0  0  0  0  0  0  0  0  0  0  0
  -11.9809  -18.6264   18.6595 C   0  0  0  0  0  0  0  0  0  0  0  0
  -11.6267  -17.1545   18.9092 C   0  0  0  0  0  0  0  0  0  0  0  0
  -10.7649  -16.5468   17.7960 C   0  0  0  0  0  0  0  0  0  0  0  0
  -10.1626  -17.5767   16.8327 C   0  0  0  0  0  0  0  0  0  0  0  0
   -9.4118  -16.9383   15.6588 C   0  0  0  0  0  0  0  0  0  0  0  0
   -7.8999  -17.0081   15.8696 C   0  0  0  0  0  0  0  0  0  0  0  0
   -7.2473  -18.0392   14.9453 C   0  0  0  0  0  0  0  0  0  0  0  0
   -5.7638  -18.1984   15.2784 C   0  0  0  0  0  0  0  0  0  0  0  0
   -5.0595  -19.1789   14.3404 C   0  0  0  0  0  0  0  0  0  0  0  0
   -5.9084  -20.4160   14.0176 C   0  0  0  0  0  0  0  0  0  0  0  0
   -5.2121  -21.3943   13.0660 C   0  0  0  0  0  0  0  0  0  0  0  0
   -5.9641  -22.7142   12.8714 C   0  0  0  0  0  0  0  0  0  0  0  0
   -5.6481  -23.4105   11.5449 C   0  0  0  0  0  0  0  0  0  0  0  0
   -5.8955  -24.9230   11.5950 C   0  0  0  0  0  0  0  0  0  0  0  0
   -4.8239  -25.7398   10.8678 C   0  0  0  0  0  0  0  0  0  0  0  0
   -5.1306  -27.2405   10.9338 C   0  0  0  0  0  0  0  0  0  0  0  0
   -5.5245  -27.8383    9.5764 C   0  0  0  0  0  0  0  0  0  0  0  0
   -4.9242  -29.2186    9.2812 C   0  0  0  0  0  0  0  0  0  0  0  0
   -5.3490  -29.8790    7.9699 C   0  0  0  0  0  0  0  0  0  0  0  0
   -4.7777  -31.2859    7.7849 C   0  0  0  0  0  0  0  0  0  0  0  0
   -4.6409  -32.0022    9.1182 C   0  0  0  0  0  0  0  0  0  0  0  0
 25  1  1  0
 26  1  1  1
  2 29  1  0
  2 30  1  6
 32  2  1  0
 32  3  1  6
  3 33  1  0
  5  4  1  0
  4 28  1  6
  4 32  1  0
 26  5  1  0
  5 27  1  1
  7  6  1  0
  8  7  1  0
  9  8  1  0
 10  9  1  0
 11 10  1  0
 12 11  1  0
 13 12  1  0
 14 13  1  0
 15 14  1  0
 16 15  1  0
 17 16  1  0
 18 17  1  0
 19 18  1  0
 20 19  1  0
 20 21  1  1
 22 20  1  0
 22 23  1  1
 24 22  1  0
 24 25  1  6
 24 41  1  0
 26 29  1  0
 30 31  1  0
 33 34  1  0
 34 35  2  0
 34 40  1  0
 35 36  1  0
 36 37  2  0
 37 38  1  0
 37 39  1  0
 39 40  2  0
 41 42  1  0
 42 43  2  0
 42 44  1  0
 44 45  1  0
 45 46  1  0
 46 47  1  0
 47 48  1  0
 48 49  1  0
 49 50  1  0
 50 51  1  0
 51 52  1  0
 52 53  1  0
 53 54  1  0
 54 55  1  0
 55 56  1  0
 56 57  1  0
 57 58  1  0
 58 59  1  0
 59 60  1  0
 60 61  1  0
 61 62  1  0
 62 63  1  0
 63 64  1  0
 64 65  1  0
 65 66  1  0
 66 67  1  0
 67 68  1  0
M  END
$$$$
