
     RDKit          3D

 68 69  0  0  0  0  0  0  0  0999 V2000
  -12.5738  -25.4821   22.5198 O   0  0  0  0  0  0  0  0  0  0  0  0
  -10.0944  -24.0611   20.2711 C   0  0  2  0  0  0  0  0  0  0  0  0
   -9.1289  -23.1867   22.4159 O   0  0  0  0  0  0  0  0  0  0  0  0
  -11.0396  -22.1469   21.5223 C   0  0  1  0  0  0  0  0  0  0  0  0
  -12.0679  -23.1421   22.0976 C   0  0  2  0  0  0  0  0  0  0  0  0
  -15.4558  -15.3561   14.2688 C   0  0  0  0  0  0  0  0  0  0  0  0
  -15.1289  -16.7137   14.8690 C   0  0  0  0  0  0  0  0  0  0  0  0
  -15.8835  -17.8385   14.1604 C   0  0  0  0  0  0  0  0  0  0  0  0
  -15.4354  -19.2110   14.6646 C   0  0  0  0  0  0  0  0  0  0  0  0
  -16.0946  -20.3804   13.9294 C   0  0  0  0  0  0  0  0  0  0  0  0
  -16.7431  -21.3988   14.8683 C   0  0  0  0  0  0  0  0  0  0  0  0
  -17.3458  -22.5723   14.0871 C   0  0  0  0  0  0  0  0  0  0  0  0
  -18.0029  -23.6100   15.0039 C   0  0  0  0  0  0  0  0  0  0  0  0
  -17.0370  -24.7104   15.4562 C   0  0  0  0  0  0  0  0  0  0  0  0
  -17.7114  -25.7722   16.3317 C   0  0  0  0  0  0  0  0  0  0  0  0
  -17.8701  -25.3558   17.7963 C   0  0  0  0  0  0  0  0  0  0  0  0
  -18.4725  -26.4615   18.6755 C   0  0  0  0  0  0  0  0  0  0  0  0
  -18.6449  -26.0170   20.1324 C   0  0  0  0  0  0  0  0  0  0  0  0
  -17.3681  -26.2023   20.9591 C   0  0  0  0  0  0  0  0  0  0  0  0
  -16.4596  -24.9528   20.9642 C   0  0  1  0  0  0  0  0  0  0  0  0
  -17.1341  -23.8979   21.6512 O   0  0  0  0  0  0  0  0  0  0  0  0
  -15.0625  -25.2195   21.5717 C   0  0  1  0  0  0  0  0  0  0  0  0
  -15.2261  -25.5315   22.9625 O   0  0  0  0  0  0  0  0  0  0  0  0
  -14.1864  -26.2709   20.8304 C   0  0  2  0  0  0  0  0  0  0  0  0
  -12.8204  -26.4858   21.5222 C   0  0  0  0  0  0  0  0  0  0  0  0
  -11.5100  -24.5882   22.1516 C   0  0  2  0  0  0  0  0  0  0  0  0
  -13.2484  -23.1217   21.2593 O   0  0  0  0  0  0  0  0  0  0  0  0
  -10.7632  -21.1083   22.4807 O   0  0  0  0  0  0  0  0  0  0  0  0
  -11.0158  -24.9918   20.8753 O   0  0  0  0  0  0  0  0  0  0  0  0
   -8.9068  -24.8512   19.7135 C   0  0  0  0  0  0  0  0  0  0  0  0
   -8.4954  -25.8874   20.5949 O   0  0  0  0  0  0  0  0  0  0  0  0
   -9.7170  -22.8439   21.1550 C   0  0  2  0  0  0  0  0  0  0  0  0
   -7.8778  -22.5745   22.7113 C   0  0  0  0  0  0  0  0  0  0  0  0
   -7.6352  -21.5905   21.5951 C   0  0  0  0  0  0  0  0  0  0  0  0
   -7.4415  -20.2309   21.8536 C   0  0  0  0  0  0  0  0  0  0  0  0
   -7.1426  -19.3476   20.8106 C   0  0  0  0  0  0  0  0  0  0  0  0
   -7.0373  -19.8076   19.4941 C   0  0  0  0  0  0  0  0  0  0  0  0
   -6.6480  -18.8787   18.3824 C   0  0  0  0  0  0  0  0  0  0  0  0
   -7.2377  -21.1662   19.2323 C   0  0  0  0  0  0  0  0  0  0  0  0
   -7.5426  -22.0467   20.2706 C   0  0  0  0  0  0  0  0  0  0  0  0
  -14.0078  -25.9857   19.3998 N   0  0  0  0  0  0  0  0  0  0  0  0
  -13.3825  -26.8662   18.5483 C   0  0  0  0  0  0  0  0  0  0  0  0
  -12.1759  -26.8124   18.3340 O   0  0  0  0  0  0  0  0  0  0  0  0
  -14.2883  -27.9311   17.9558 C   0  0  0  0  0  0  0  0  0  0  0  0
  -13.7115  -28.5309   16.6727 C   0  0  0  0  0  0  0  0  0  0  0  0
  -12.6326  -27.6563   16.0241 C   0  0  0  0  0  0  0  0  0  0  0  0
  -12.1617  -28.1628   14.6509 C   0  0  0  0  0  0  0  0  0  0  0  0
  -10.7880  -27.6228   14.2338 C   0  0  0  0  0  0  0  0  0  0  0  0
  -10.2859  -28.2614   12.9321 C   0  0  0  0  0  0  0  0  0  0  0  0
   -9.9661  -27.2314   11.8421 C   0  0  0  0  0  0  0  0  0  0  0  0
   -9.7120  -27.8385   10.4571 C   0  0  0  0  0  0  0  0  0  0  0  0
   -8.5495  -28.8373   10.4400 C   0  0  0  0  0  0  0  0  0  0  0  0
   -7.2052  -28.1187   10.5482 C   0  0  0  0  0  0  0  0  0  0  0  0
   -6.0341  -29.1044   10.5297 C   0  0  0  0  0  0  0  0  0  0  0  0
   -4.7008  -28.3571   10.5583 C   0  0  0  0  0  0  0  0  0  0  0  0
   -3.7063  -28.9034    9.5335 C   0  0  0  0  0  0  0  0  0  0  0  0
   -2.9519  -30.1437   10.0313 C   0  0  0  0  0  0  0  0  0  0  0  0
   -1.8518  -30.6069    9.0707 C   0  0  0  0  0  0  0  0  0  0  0  0
   -1.1447  -31.8929    9.5086 C   0  0  0  0  0  0  0  0  0  0  0  0
   -0.9026  -32.8802    8.3638 C   0  0  0  0  0  0  0  0  0  0  0  0
    0.5862  -33.0703    8.0489 C   0  0  0  0  0  0  0  0  0  0  0  0
    0.8470  -34.0739    6.9225 C   0  0  0  0  0  0  0  0  0  0  0  0
    2.2239  -34.7312    7.0732 C   0  0  0  0  0  0  0  0  0  0  0  0
    2.4081  -35.4499    8.4166 C   0  0  0  0  0  0  0  0  0  0  0  0
    3.8030  -36.0466    8.6427 C   0  0  0  0  0  0  0  0  0  0  0  0
    4.5662  -35.5469    9.8690 C   0  0  0  0  0  0  0  0  0  0  0  0
    5.6302  -36.5280   10.3640 C   0  0  0  0  0  0  0  0  0  0  0  0
    6.2510  -36.0528   11.6672 C   0  0  0  0  0  0  0  0  0  0  0  0
 25  1  1  0
 26  1  1  6
  2 29  1  0
  2 30  1  1
 32  2  1  0
 32  3  1  1
  3 33  1  0
  5  4  1  0
  4 28  1  1
  4 32  1  0
 26  5  1  0
  5 27  1  6
  7  6  1  0
  8  7  1  0
  9  8  1  0
 10  9  1  0
 11 10  1  0
 12 11  1  0
 13 12  1  0
 14 13  1  0
 15 14  1  0
 16 15  1  0
 17 16  1  0
 18 17  1  0
 19 18  1  0
 20 19  1  0
 20 21  1  1
 22 20  1  0
 22 23  1  1
 24 22  1  0
 24 25  1  1
 24 41  1  0
 26 29  1  0
 30 31  1  0
 33 34  1  0
 34 35  2  0
 34 40  1  0
 35 36  1  0
 36 37  2  0
 37 38  1  0
 37 39  1  0
 39 40  2  0
 41 42  1  0
 42 43  2  0
 42 44  1  0
 44 45  1  0
 45 46  1  0
 46 47  1  0
 47 48  1  0
 48 49  1  0
 49 50  1  0
 50 51  1  0
 51 52  1  0
 52 53  1  0
 53 54  1  0
 54 55  1  0
 55 56  1  0
 56 57  1  0
 57 58  1  0
 58 59  1  0
 59 60  1  0
 60 61  1  0
 61 62  1  0
 62 63  1  0
 63 64  1  0
 64 65  1  0
 65 66  1  0
 66 67  1  0
 67 68  1  0
M  END
$$$$
