
     RDKit          3D

 68 69  0  0  0  0  0  0  0  0999 V2000
  -12.7665  -28.4621   15.4078 O   0  0  0  0  0  0  0  0  0  0  0  0
  -11.6857  -26.2577   18.0903 C   0  0  2  0  0  0  0  0  0  0  0  0
  -12.9796  -27.8795   19.5019 O   0  0  0  0  0  0  0  0  0  0  0  0
  -14.1568  -26.3026   18.2143 C   0  0  1  0  0  0  0  0  0  0  0  0
  -14.1225  -27.0940   16.8908 C   0  0  2  0  0  0  0  0  0  0  0  0
   -2.7281  -35.4721   11.5440 C   0  0  0  0  0  0  0  0  0  0  0  0
   -3.6260  -34.2918   11.8771 C   0  0  0  0  0  0  0  0  0  0  0  0
   -3.9690  -33.4765   10.6304 C   0  0  0  0  0  0  0  0  0  0  0  0
   -4.9581  -32.3562   10.9548 C   0  0  0  0  0  0  0  0  0  0  0  0
   -5.2869  -31.4617    9.7571 C   0  0  0  0  0  0  0  0  0  0  0  0
   -6.5850  -30.6713    9.9287 C   0  0  0  0  0  0  0  0  0  0  0  0
   -6.9075  -29.8500    8.6749 C   0  0  0  0  0  0  0  0  0  0  0  0
   -6.9150  -28.3420    8.9488 C   0  0  0  0  0  0  0  0  0  0  0  0
   -7.8711  -27.5693    8.0338 C   0  0  0  0  0  0  0  0  0  0  0  0
   -8.9272  -26.7752    8.8102 C   0  0  0  0  0  0  0  0  0  0  0  0
  -10.2680  -26.6532    8.0815 C   0  0  0  0  0  0  0  0  0  0  0  0
  -11.3701  -26.0262    8.9479 C   0  0  0  0  0  0  0  0  0  0  0  0
  -11.5079  -26.7218   10.3070 C   0  0  0  0  0  0  0  0  0  0  0  0
  -12.3130  -25.8929   11.3133 C   0  0  0  0  0  0  0  0  0  0  0  0
  -11.4608  -25.3691   12.4906 C   0  0  1  0  0  0  0  0  0  0  0  0
  -11.8282  -24.0146   12.7558 O   0  0  0  0  0  0  0  0  0  0  0  0
  -11.5753  -26.2442   13.7607 C   0  0  1  0  0  0  0  0  0  0  0  0
  -12.8602  -26.0120   14.3556 O   0  0  0  0  0  0  0  0  0  0  0  0
  -11.2776  -27.7603   13.5728 C   0  0  2  0  0  0  0  0  0  0  0  0
  -11.4293  -28.5536   14.8913 C   0  0  0  0  0  0  0  0  0  0  0  0
  -12.8094  -27.9039   16.7318 C   0  0  2  0  0  0  0  0  0  0  0  0
  -14.2375  -26.1589   15.7912 O   0  0  0  0  0  0  0  0  0  0  0  0
  -15.2942  -26.7012   19.0023 O   0  0  0  0  0  0  0  0  0  0  0  0
  -11.6686  -27.0621   16.8933 O   0  0  0  0  0  0  0  0  0  0  0  0
  -10.3028  -26.3358   18.7438 C   0  0  0  0  0  0  0  0  0  0  0  0
   -9.2876  -26.6634   17.8048 O   0  0  0  0  0  0  0  0  0  0  0  0
  -12.8792  -26.5255   19.0439 C   0  0  2  0  0  0  0  0  0  0  0  0
  -12.6685  -28.1021   20.8735 C   0  0  0  0  0  0  0  0  0  0  0  0
  -13.2338  -26.9168   21.6141 C   0  0  0  0  0  0  0  0  0  0  0  0
  -13.7515  -25.8125   20.9319 C   0  0  0  0  0  0  0  0  0  0  0  0
  -14.3401  -24.7571   21.6371 C   0  0  0  0  0  0  0  0  0  0  0  0
  -14.4162  -24.7864   23.0332 C   0  0  0  0  0  0  0  0  0  0  0  0
  -15.1084  -23.6917   23.7900 C   0  0  0  0  0  0  0  0  0  0  0  0
  -13.8926  -25.8870   23.7180 C   0  0  0  0  0  0  0  0  0  0  0  0
  -13.2994  -26.9367   23.0164 C   0  0  0  0  0  0  0  0  0  0  0  0
   -9.9760  -28.0320   12.9469 N   0  0  0  0  0  0  0  0  0  0  0  0
   -8.7903  -27.6257   13.5130 C   0  0  0  0  0  0  0  0  0  0  0  0
   -8.4420  -28.0043   14.6265 O   0  0  0  0  0  0  0  0  0  0  0  0
   -7.9357  -26.7339   12.6300 C   0  0  0  0  0  0  0  0  0  0  0  0
   -7.4030  -25.5148   13.3842 C   0  0  0  0  0  0  0  0  0  0  0  0
   -7.4265  -25.6841   14.9075 C   0  0  0  0  0  0  0  0  0  0  0  0
   -6.9428  -24.4459   15.6800 C   0  0  0  0  0  0  0  0  0  0  0  0
   -6.9575  -24.6263   17.2031 C   0  0  0  0  0  0  0  0  0  0  0  0
   -6.2517  -23.4736   17.9294 C   0  0  0  0  0  0  0  0  0  0  0  0
   -7.0587  -22.9251   19.1123 C   0  0  0  0  0  0  0  0  0  0  0  0
   -6.2022  -22.4410   20.2885 C   0  0  0  0  0  0  0  0  0  0  0  0
   -7.0094  -21.6926   21.3551 C   0  0  0  0  0  0  0  0  0  0  0  0
   -8.3233  -21.1645   20.7806 C   0  0  0  0  0  0  0  0  0  0  0  0
   -9.3761  -20.9600   21.8730 C   0  0  0  0  0  0  0  0  0  0  0  0
   -8.7085  -20.7617   23.2338 C   0  0  0  0  0  0  0  0  0  0  0  0
   -9.7103  -20.8235   24.3871 C   0  0  0  0  0  0  0  0  0  0  0  0
   -9.4587  -19.7542   25.4589 C   0  0  0  0  0  0  0  0  0  0  0  0
   -9.5546  -18.3238   24.9185 C   0  0  0  0  0  0  0  0  0  0  0  0
  -10.2692  -17.3499   25.8601 C   0  0  0  0  0  0  0  0  0  0  0  0
  -10.2306  -15.8956   25.3831 C   0  0  0  0  0  0  0  0  0  0  0  0
   -9.9686  -14.9039   26.5231 C   0  0  0  0  0  0  0  0  0  0  0  0
   -9.4017  -13.5639   26.0464 C   0  0  0  0  0  0  0  0  0  0  0  0
   -7.9105  -13.4420   26.3812 C   0  0  0  0  0  0  0  0  0  0  0  0
   -7.2554  -12.1909   25.7808 C   0  0  0  0  0  0  0  0  0  0  0  0
   -5.7409  -12.0875   26.0009 C   0  0  0  0  0  0  0  0  0  0  0  0
   -4.9482  -13.3904   25.8997 C   0  0  0  0  0  0  0  0  0  0  0  0
   -3.9993  -13.6175   27.0778 C   0  0  0  0  0  0  0  0  0  0  0  0
   -2.8067  -14.4648   26.6665 C   0  0  0  0  0  0  0  0  0  0  0  0
 25  1  1  0
 26  1  1  6
  2 29  1  0
  2 30  1  1
 32  2  1  0
 32  3  1  6
  3 33  1  0
  5  4  1  0
  4 28  1  1
  4 32  1  0
 26  5  1  0
  5 27  1  6
  7  6  1  0
  8  7  1  0
  9  8  1  0
 10  9  1  0
 11 10  1  0
 12 11  1  0
 13 12  1  0
 14 13  1  0
 15 14  1  0
 16 15  1  0
 17 16  1  0
 18 17  1  0
 19 18  1  0
 20 19  1  0
 20 21  1  1
 22 20  1  0
 22 23  1  6
 24 22  1  0
 24 25  1  1
 24 41  1  0
 26 29  1  0
 30 31  1  0
 33 34  1  0
 34 35  2  0
 34 40  1  0
 35 36  1  0
 36 37  2  0
 37 38  1  0
 37 39  1  0
 39 40  2  0
 41 42  1  0
 42 43  2  0
 42 44  1  0
 44 45  1  0
 45 46  1  0
 46 47  1  0
 47 48  1  0
 48 49  1  0
 49 50  1  0
 50 51  1  0
 51 52  1  0
 52 53  1  0
 53 54  1  0
 54 55  1  0
 55 56  1  0
 56 57  1  0
 57 58  1  0
 58 59  1  0
 59 60  1  0
 60 61  1  0
 61 62  1  0
 62 63  1  0
 63 64  1  0
 64 65  1  0
 65 66  1  0
 66 67  1  0
 67 68  1  0
M  END
$$$$
