
     RDKit          3D

 68 69  0  0  0  0  0  0  0  0999 V2000
  -14.2234  -26.7900   21.0617 O   0  0  0  0  0  0  0  0  0  0  0  0
  -13.5475  -23.2267   20.7989 C   0  0  2  0  0  0  0  0  0  0  0  0
  -15.6094  -23.0638   22.2198 O   0  0  0  0  0  0  0  0  0  0  0  0
  -15.8427  -23.5394   19.9285 C   0  0  1  0  0  0  0  0  0  0  0  0
  -15.5837  -25.0561   20.0355 C   0  0  2  0  0  0  0  0  0  0  0  0
   -6.3838  -15.9774   23.0979 C   0  0  0  0  0  0  0  0  0  0  0  0
   -4.9230  -16.0300   22.6815 C   0  0  0  0  0  0  0  0  0  0  0  0
   -4.4766  -17.4594   22.3746 C   0  0  0  0  0  0  0  0  0  0  0  0
   -3.0160  -17.4998   21.9232 C   0  0  0  0  0  0  0  0  0  0  0  0
   -2.5587  -18.8806   21.4468 C   0  0  0  0  0  0  0  0  0  0  0  0
   -3.5516  -19.9958   21.7777 C   0  0  0  0  0  0  0  0  0  0  0  0
   -3.0392  -21.3588   21.2977 C   0  0  0  0  0  0  0  0  0  0  0  0
   -4.0258  -22.4932   21.5957 C   0  0  0  0  0  0  0  0  0  0  0  0
   -4.3435  -23.3524   20.3671 C   0  0  0  0  0  0  0  0  0  0  0  0
   -5.4659  -24.3643   20.6218 C   0  0  0  0  0  0  0  0  0  0  0  0
   -5.8703  -25.1641   19.3807 C   0  0  0  0  0  0  0  0  0  0  0  0
   -7.3917  -25.2956   19.2176 C   0  0  0  0  0  0  0  0  0  0  0  0
   -7.7987  -26.6518   18.6302 C   0  0  0  0  0  0  0  0  0  0  0  0
   -8.7628  -27.4212   19.5393 C   0  0  0  0  0  0  0  0  0  0  0  0
  -10.1544  -27.6392   18.9049 C   0  0  1  0  0  0  0  0  0  0  0  0
  -10.7735  -28.7631   19.5320 O   0  0  0  0  0  0  0  0  0  0  0  0
  -11.0575  -26.3855   18.9744 C   0  0  1  0  0  0  0  0  0  0  0  0
  -10.8412  -25.6060   17.7893 O   0  0  0  0  0  0  0  0  0  0  0  0
  -12.5684  -26.6478   19.2404 C   0  0  2  0  0  0  0  0  0  0  0  0
  -12.8472  -27.0140   20.7165 C   0  0  0  0  0  0  0  0  0  0  0  0
  -14.5514  -25.3928   21.1429 C   0  0  2  0  0  0  0  0  0  0  0  0
  -15.0824  -25.5294   18.7621 O   0  0  0  0  0  0  0  0  0  0  0  0
  -17.2381  -23.2571   20.1449 O   0  0  0  0  0  0  0  0  0  0  0  0
  -13.3489  -24.6458   20.9630 O   0  0  0  0  0  0  0  0  0  0  0  0
  -12.5275  -22.4925   21.6741 C   0  0  0  0  0  0  0  0  0  0  0  0
  -11.7795  -23.3879   22.4857 O   0  0  0  0  0  0  0  0  0  0  0  0
  -15.0140  -22.7468   20.9556 C   0  0  2  0  0  0  0  0  0  0  0  0
  -16.6185  -22.1705   22.6792 C   0  0  0  0  0  0  0  0  0  0  0  0
  -16.1120  -21.6283   23.9916 C   0  0  0  0  0  0  0  0  0  0  0  0
  -15.6375  -20.3186   24.1028 C   0  0  0  0  0  0  0  0  0  0  0  0
  -15.2434  -19.8117   25.3458 C   0  0  0  0  0  0  0  0  0  0  0  0
  -15.3127  -20.6059   26.4948 C   0  0  0  0  0  0  0  0  0  0  0  0
  -14.9583  -20.0461   27.8407 C   0  0  0  0  0  0  0  0  0  0  0  0
  -15.7804  -21.9187   26.3846 C   0  0  0  0  0  0  0  0  0  0  0  0
  -16.1672  -22.4274   25.1446 C   0  0  0  0  0  0  0  0  0  0  0  0
  -13.1622  -27.6416   18.3350 N   0  0  0  0  0  0  0  0  0  0  0  0
  -12.5661  -28.0032   17.1496 C   0  0  0  0  0  0  0  0  0  0  0  0
  -11.4185  -27.6688   16.8743 O   0  0  0  0  0  0  0  0  0  0  0  0
  -13.4143  -28.8892   16.2546 C   0  0  0  0  0  0  0  0  0  0  0  0
  -14.4775  -28.0940   15.4955 C   0  0  0  0  0  0  0  0  0  0  0  0
  -13.8949  -26.9683   14.6337 C   0  0  0  0  0  0  0  0  0  0  0  0
  -13.2790  -27.4514   13.3103 C   0  0  0  0  0  0  0  0  0  0  0  0
  -12.6328  -26.3302   12.4868 C   0  0  0  0  0  0  0  0  0  0  0  0
  -11.6479  -26.8728   11.4427 C   0  0  0  0  0  0  0  0  0  0  0  0
  -11.9568  -28.3132   11.0171 C   0  0  0  0  0  0  0  0  0  0  0  0
  -10.9259  -28.9213   10.0585 C   0  0  0  0  0  0  0  0  0  0  0  0
   -9.8834  -27.9085    9.5717 C   0  0  0  0  0  0  0  0  0  0  0  0
   -9.6138  -28.0723    8.0765 C   0  0  0  0  0  0  0  0  0  0  0  0
   -8.1177  -28.2117    7.7838 C   0  0  0  0  0  0  0  0  0  0  0  0
   -7.2934  -27.9004    9.0330 C   0  0  0  0  0  0  0  0  0  0  0  0
   -5.8395  -28.3534    8.8977 C   0  0  0  0  0  0  0  0  0  0  0  0
   -5.2657  -28.9271   10.2004 C   0  0  0  0  0  0  0  0  0  0  0  0
   -3.8853  -29.5673   10.0215 C   0  0  0  0  0  0  0  0  0  0  0  0
   -3.5809  -29.9973    8.5835 C   0  0  0  0  0  0  0  0  0  0  0  0
   -2.6808  -31.2323    8.4899 C   0  0  0  0  0  0  0  0  0  0  0  0
   -2.0175  -31.3805    7.1153 C   0  0  0  0  0  0  0  0  0  0  0  0
   -0.4876  -31.3919    7.1753 C   0  0  0  0  0  0  0  0  0  0  0  0
    0.1204  -30.6786    5.9620 C   0  0  0  0  0  0  0  0  0  0  0  0
    0.9973  -31.5947    5.0978 C   0  0  0  0  0  0  0  0  0  0  0  0
    1.2580  -31.0832    3.6754 C   0  0  0  0  0  0  0  0  0  0  0  0
    2.5432  -31.5659    3.0037 C   0  0  0  0  0  0  0  0  0  0  0  0
    2.7936  -30.9236    1.6381 C   0  0  0  0  0  0  0  0  0  0  0  0
    4.0591  -31.4701    0.9984 C   0  0  0  0  0  0  0  0  0  0  0  0
 25  1  1  0
 26  1  1  6
  2 29  1  0
  2 30  1  1
 32  2  1  0
 32  3  1  1
  3 33  1  0
  5  4  1  0
  4 28  1  1
  4 32  1  0
 26  5  1  0
  5 27  1  6
  7  6  1  0
  8  7  1  0
  9  8  1  0
 10  9  1  0
 11 10  1  0
 12 11  1  0
 13 12  1  0
 14 13  1  0
 15 14  1  0
 16 15  1  0
 17 16  1  0
 18 17  1  0
 19 18  1  0
 20 19  1  0
 20 21  1  1
 22 20  1  0
 22 23  1  6
 24 22  1  0
 24 25  1  1
 24 41  1  0
 26 29  1  0
 30 31  1  0
 33 34  1  0
 34 35  2  0
 34 40  1  0
 35 36  1  0
 36 37  2  0
 37 38  1  0
 37 39  1  0
 39 40  2  0
 41 42  1  0
 42 43  2  0
 42 44  1  0
 44 45  1  0
 45 46  1  0
 46 47  1  0
 47 48  1  0
 48 49  1  0
 49 50  1  0
 50 51  1  0
 51 52  1  0
 52 53  1  0
 53 54  1  0
 54 55  1  0
 55 56  1  0
 56 57  1  0
 57 58  1  0
 58 59  1  0
 59 60  1  0
 60 61  1  0
 61 62  1  0
 62 63  1  0
 63 64  1  0
 64 65  1  0
 65 66  1  0
 66 67  1  0
 67 68  1  0
M  END
$$$$
