
     RDKit          3D

 68 69  0  0  0  0  0  0  0  0999 V2000
  -15.1169  -24.7382   19.7196 O   0  0  0  0  0  0  0  0  0  0  0  0
  -15.2923  -26.6971   22.7782 C   0  0  2  0  0  0  0  0  0  0  0  0
  -17.3950  -25.3707   23.1192 O   0  0  0  0  0  0  0  0  0  0  0  0
  -15.3205  -24.3293   23.4964 C   0  0  1  0  0  0  0  0  0  0  0  0
  -15.0330  -23.9694   22.0244 C   0  0  2  0  0  0  0  0  0  0  0  0
    2.5439  -24.4461   22.9317 C   0  0  0  0  0  0  0  0  0  0  0  0
    1.4986  -25.2756   22.2040 C   0  0  0  0  0  0  0  0  0  0  0  0
    0.8334  -24.4818   21.0796 C   0  0  0  0  0  0  0  0  0  0  0  0
   -0.1202  -25.3606   20.2690 C   0  0  0  0  0  0  0  0  0  0  0  0
   -1.5863  -25.2228   20.6864 C   0  0  0  0  0  0  0  0  0  0  0  0
   -1.9749  -26.1389   21.8477 C   0  0  0  0  0  0  0  0  0  0  0  0
   -3.0847  -25.5154   22.7023 C   0  0  0  0  0  0  0  0  0  0  0  0
   -4.0450  -24.6527   21.8762 C   0  0  0  0  0  0  0  0  0  0  0  0
   -5.3554  -24.3423   22.6076 C   0  0  0  0  0  0  0  0  0  0  0  0
   -6.2882  -23.4339   21.7993 C   0  0  0  0  0  0  0  0  0  0  0  0
   -7.6006  -23.1025   22.5144 C   0  0  0  0  0  0  0  0  0  0  0  0
   -8.6430  -22.4543   21.5915 C   0  0  0  0  0  0  0  0  0  0  0  0
  -10.0039  -22.2884   22.2772 C   0  0  0  0  0  0  0  0  0  0  0  0
  -10.7605  -21.0479   21.7908 C   0  0  0  0  0  0  0  0  0  0  0  0
  -11.7807  -21.3567   20.6727 C   0  0  1  0  0  0  0  0  0  0  0  0
  -11.2059  -20.9982   19.4153 O   0  0  0  0  0  0  0  0  0  0  0  0
  -12.2596  -22.8273   20.6758 C   0  0  1  0  0  0  0  0  0  0  0  0
  -12.8691  -23.1018   21.9453 O   0  0  0  0  0  0  0  0  0  0  0  0
  -13.1647  -23.2518   19.4828 C   0  0  2  0  0  0  0  0  0  0  0  0
  -13.6837  -24.7009   19.6296 C   0  0  0  0  0  0  0  0  0  0  0  0
  -15.5784  -25.0426   21.0465 C   0  0  2  0  0  0  0  0  0  0  0  0
  -13.6002  -23.8546   21.8490 O   0  0  0  0  0  0  0  0  0  0  0  0
  -16.1013  -23.2914   24.1183 O   0  0  0  0  0  0  0  0  0  0  0  0
  -15.0979  -26.3405   21.3943 O   0  0  0  0  0  0  0  0  0  0  0  0
  -15.8340  -28.1285   22.8360 C   0  0  0  0  0  0  0  0  0  0  0  0
  -17.0214  -28.2801   22.0700 O   0  0  0  0  0  0  0  0  0  0  0  0
  -16.0835  -25.6608   23.6182 C   0  0  2  0  0  0  0  0  0  0  0  0
  -18.4654  -25.5175   24.0467 C   0  0  0  0  0  0  0  0  0  0  0  0
  -19.2600  -24.2397   23.9532 C   0  0  0  0  0  0  0  0  0  0  0  0
  -18.6572  -22.9931   24.1418 C   0  0  0  0  0  0  0  0  0  0  0  0
  -19.3965  -21.8170   23.9757 C   0  0  0  0  0  0  0  0  0  0  0  0
  -20.7490  -21.8681   23.6236 C   0  0  0  0  0  0  0  0  0  0  0  0
  -21.5285  -20.6107   23.3753 C   0  0  0  0  0  0  0  0  0  0  0  0
  -21.3557  -23.1144   23.4413 C   0  0  0  0  0  0  0  0  0  0  0  0
  -20.6213  -24.2879   23.6133 C   0  0  0  0  0  0  0  0  0  0  0  0
  -12.5388  -23.0523   18.1682 N   0  0  0  0  0  0  0  0  0  0  0  0
  -13.0423  -23.6209   17.0217 C   0  0  0  0  0  0  0  0  0  0  0  0
  -14.2374  -23.5772   16.7491 O   0  0  0  0  0  0  0  0  0  0  0  0
  -12.0004  -24.2415   16.1080 C   0  0  0  0  0  0  0  0  0  0  0  0
  -12.6157  -25.2358   15.1223 C   0  0  0  0  0  0  0  0  0  0  0  0
  -13.9548  -24.7670   14.5420 C   0  0  0  0  0  0  0  0  0  0  0  0
  -14.3750  -25.5111   13.2638 C   0  0  0  0  0  0  0  0  0  0  0  0
  -14.1678  -27.0290   13.3392 C   0  0  0  0  0  0  0  0  0  0  0  0
  -14.4304  -27.7166   11.9928 C   0  0  0  0  0  0  0  0  0  0  0  0
  -13.6126  -28.9999   11.8041 C   0  0  0  0  0  0  0  0  0  0  0  0
  -12.1809  -28.7667   11.3066 C   0  0  0  0  0  0  0  0  0  0  0  0
  -11.5025  -30.0444   10.8000 C   0  0  0  0  0  0  0  0  0  0  0  0
  -10.0484  -30.1162   11.2643 C   0  0  0  0  0  0  0  0  0  0  0  0
   -9.0758  -29.7794   10.1312 C   0  0  0  0  0  0  0  0  0  0  0  0
   -7.8040  -29.1379   10.6861 C   0  0  0  0  0  0  0  0  0  0  0  0
   -6.7824  -28.8309    9.5909 C   0  0  0  0  0  0  0  0  0  0  0  0
   -5.4015  -28.4562   10.1459 C   0  0  0  0  0  0  0  0  0  0  0  0
   -4.2440  -29.0020    9.3034 C   0  0  0  0  0  0  0  0  0  0  0  0
   -2.9247  -28.2488    9.4972 C   0  0  0  0  0  0  0  0  0  0  0  0
   -1.8734  -28.5684    8.4310 C   0  0  0  0  0  0  0  0  0  0  0  0
   -0.9864  -29.7603    8.8107 C   0  0  0  0  0  0  0  0  0  0  0  0
    0.3171  -29.3532    9.5032 C   0  0  0  0  0  0  0  0  0  0  0  0
    1.5229  -29.5545    8.5780 C   0  0  0  0  0  0  0  0  0  0  0  0
    2.1150  -30.9683    8.6540 C   0  0  0  0  0  0  0  0  0  0  0  0
    3.5879  -31.0736    8.2387 C   0  0  0  0  0  0  0  0  0  0  0  0
    3.9482  -30.5157    6.8621 C   0  0  0  0  0  0  0  0  0  0  0  0
    5.4433  -30.5919    6.5478 C   0  0  0  0  0  0  0  0  0  0  0  0
    6.2196  -29.5327    7.3127 C   0  0  0  0  0  0  0  0  0  0  0  0
 25  1  1  0
 26  1  1  6
  2 29  1  0
  2 30  1  6
 32  2  1  0
 32  3  1  6
  3 33  1  0
  5  4  1  0
  4 28  1  6
  4 32  1  0
 26  5  1  0
  5 27  1  1
  7  6  1  0
  8  7  1  0
  9  8  1  0
 10  9  1  0
 11 10  1  0
 12 11  1  0
 13 12  1  0
 14 13  1  0
 15 14  1  0
 16 15  1  0
 17 16  1  0
 18 17  1  0
 19 18  1  0
 20 19  1  0
 20 21  1  6
 22 20  1  0
 22 23  1  1
 24 22  1  0
 24 25  1  1
 24 41  1  0
 26 29  1  0
 30 31  1  0
 33 34  1  0
 34 35  2  0
 34 40  1  0
 35 36  1  0
 36 37  2  0
 37 38  1  0
 37 39  1  0
 39 40  2  0
 41 42  1  0
 42 43  2  0
 42 44  1  0
 44 45  1  0
 45 46  1  0
 46 47  1  0
 47 48  1  0
 48 49  1  0
 49 50  1  0
 50 51  1  0
 51 52  1  0
 52 53  1  0
 53 54  1  0
 54 55  1  0
 55 56  1  0
 56 57  1  0
 57 58  1  0
 58 59  1  0
 59 60  1  0
 60 61  1  0
 61 62  1  0
 62 63  1  0
 63 64  1  0
 64 65  1  0
 65 66  1  0
 66 67  1  0
 67 68  1  0
M  END
$$$$
