
     RDKit          3D

 68 69  0  0  0  0  0  0  0  0999 V2000
  -16.6555  -28.2901   18.3614 O   0  0  0  0  0  0  0  0  0  0  0  0
  -18.5388  -28.6219   21.4543 C   0  0  2  0  0  0  0  0  0  0  0  0
  -19.3878  -30.6990   20.3309 O   0  0  0  0  0  0  0  0  0  0  0  0
  -20.2235  -28.6116   19.6418 C   0  0  1  0  0  0  0  0  0  0  0  0
  -19.0649  -28.2646   18.6846 C   0  0  2  0  0  0  0  0  0  0  0  0
   -2.0951  -30.1563   10.8378 C   0  0  0  0  0  0  0  0  0  0  0  0
   -2.1330  -28.9284    9.9428 C   0  0  0  0  0  0  0  0  0  0  0  0
   -3.1275  -29.0997    8.7945 C   0  0  0  0  0  0  0  0  0  0  0  0
   -4.4429  -28.3767    9.0871 C   0  0  0  0  0  0  0  0  0  0  0  0
   -5.6784  -29.2691    8.9465 C   0  0  0  0  0  0  0  0  0  0  0  0
   -6.9888  -28.5439    9.2565 C   0  0  0  0  0  0  0  0  0  0  0  0
   -6.8820  -27.7284   10.5504 C   0  0  0  0  0  0  0  0  0  0  0  0
   -8.2021  -27.0438   10.9216 C   0  0  0  0  0  0  0  0  0  0  0  0
   -8.0893  -26.1533   12.1637 C   0  0  0  0  0  0  0  0  0  0  0  0
   -9.4464  -25.8628   12.8137 C   0  0  0  0  0  0  0  0  0  0  0  0
   -9.6907  -26.6415   14.1089 C   0  0  0  0  0  0  0  0  0  0  0  0
  -11.1508  -26.5828   14.5814 C   0  0  0  0  0  0  0  0  0  0  0  0
  -11.2689  -26.1887   16.0581 C   0  0  0  0  0  0  0  0  0  0  0  0
  -11.7031  -27.3591   16.9465 C   0  0  0  0  0  0  0  0  0  0  0  0
  -12.5652  -28.4020   16.2011 C   0  0  1  0  0  0  0  0  0  0  0  0
  -11.8409  -29.6311   16.1323 O   0  0  0  0  0  0  0  0  0  0  0  0
  -13.9605  -28.6038   16.8371 C   0  0  1  0  0  0  0  0  0  0  0  0
  -14.1483  -30.0053   17.0804 O   0  0  0  0  0  0  0  0  0  0  0  0
  -14.2674  -27.7404   18.0952 C   0  0  2  0  0  0  0  0  0  0  0  0
  -15.3637  -28.3716   18.9842 C   0  0  0  0  0  0  0  0  0  0  0  0
  -17.7048  -28.8047   19.1984 C   0  0  2  0  0  0  0  0  0  0  0  0
  -18.9850  -26.8241   18.5603 O   0  0  0  0  0  0  0  0  0  0  0  0
  -21.2231  -29.3854   18.9521 O   0  0  0  0  0  0  0  0  0  0  0  0
  -17.4562  -28.3710   20.5350 O   0  0  0  0  0  0  0  0  0  0  0  0
  -17.9516  -29.2031   22.7439 C   0  0  0  0  0  0  0  0  0  0  0  0
  -16.9711  -30.1978   22.4818 O   0  0  0  0  0  0  0  0  0  0  0  0
  -19.7334  -29.4135   20.8612 C   0  0  2  0  0  0  0  0  0  0  0  0
  -19.3569  -31.7743   21.2638 C   0  0  0  0  0  0  0  0  0  0  0  0
  -20.0785  -32.9144   20.5912 C   0  0  0  0  0  0  0  0  0  0  0  0
  -20.6285  -32.7745   19.3141 C   0  0  0  0  0  0  0  0  0  0  0  0
  -21.2271  -33.8672   18.6777 C   0  0  0  0  0  0  0  0  0  0  0  0
  -21.2897  -35.1138   19.3083 C   0  0  0  0  0  0  0  0  0  0  0  0
  -21.8668  -36.3056   18.6034 C   0  0  0  0  0  0  0  0  0  0  0  0
  -20.7464  -35.2542   20.5888 C   0  0  0  0  0  0  0  0  0  0  0  0
  -20.1553  -34.1636   21.2272 C   0  0  0  0  0  0  0  0  0  0  0  0
  -14.5890  -26.3403   17.7848 N   0  0  0  0  0  0  0  0  0  0  0  0
  -13.6292  -25.3558   17.7558 C   0  0  0  0  0  0  0  0  0  0  0  0
  -12.4422  -25.6041   17.9410 O   0  0  0  0  0  0  0  0  0  0  0  0
  -14.1488  -23.9696   17.4186 C   0  0  0  0  0  0  0  0  0  0  0  0
  -13.5162  -22.8871   18.2945 C   0  0  0  0  0  0  0  0  0  0  0  0
  -12.3146  -22.1986   17.6374 C   0  0  0  0  0  0  0  0  0  0  0  0
  -10.9878  -22.4141   18.3837 C   0  0  0  0  0  0  0  0  0  0  0  0
  -10.3476  -21.1148   18.8885 C   0  0  0  0  0  0  0  0  0  0  0  0
   -9.1058  -20.7271   18.0749 C   0  0  0  0  0  0  0  0  0  0  0  0
   -8.0403  -20.0081   18.9110 C   0  0  0  0  0  0  0  0  0  0  0  0
   -6.7230  -20.7805   19.0513 C   0  0  0  0  0  0  0  0  0  0  0  0
   -5.6606  -20.0210   19.8536 C   0  0  0  0  0  0  0  0  0  0  0  0
   -5.5833  -20.5364   21.2901 C   0  0  0  0  0  0  0  0  0  0  0  0
   -4.2019  -20.2948   21.9038 C   0  0  0  0  0  0  0  0  0  0  0  0
   -4.1337  -20.8686   23.3191 C   0  0  0  0  0  0  0  0  0  0  0  0
   -2.7684  -20.6473   23.9708 C   0  0  0  0  0  0  0  0  0  0  0  0
   -2.7152  -19.3823   24.8381 C   0  0  0  0  0  0  0  0  0  0  0  0
   -1.2874  -18.9491   25.1866 C   0  0  0  0  0  0  0  0  0  0  0  0
   -1.2047  -17.5966   25.9002 C   0  0  0  0  0  0  0  0  0  0  0  0
    0.2034  -16.9956   25.9145 C   0  0  0  0  0  0  0  0  0  0  0  0
    0.1957  -15.4690   26.0597 C   0  0  0  0  0  0  0  0  0  0  0  0
   -1.1057  -14.8185   25.5828 C   0  0  0  0  0  0  0  0  0  0  0  0
   -0.8985  -13.3337   25.2620 C   0  0  0  0  0  0  0  0  0  0  0  0
   -1.9076  -12.4158   25.9650 C   0  0  0  0  0  0  0  0  0  0  0  0
   -1.2859  -11.2416   26.7315 C   0  0  0  0  0  0  0  0  0  0  0  0
   -0.6434  -10.1416   25.8870 C   0  0  0  0  0  0  0  0  0  0  0  0
   -0.3122   -8.8786   26.6840 C   0  0  0  0  0  0  0  0  0  0  0  0
   -1.0213   -7.6644   26.1077 C   0  0  0  0  0  0  0  0  0  0  0  0
 25  1  1  0
 26  1  1  6
  2 29  1  0
  2 30  1  1
 32  2  1  0
 32  3  1  6
  3 33  1  0
  5  4  1  0
  4 28  1  6
  4 32  1  0
 26  5  1  0
  5 27  1  1
  7  6  1  0
  8  7  1  0
  9  8  1  0
 10  9  1  0
 11 10  1  0
 12 11  1  0
 13 12  1  0
 14 13  1  0
 15 14  1  0
 16 15  1  0
 17 16  1  0
 18 17  1  0
 19 18  1  0
 20 19  1  0
 20 21  1  1
 22 20  1  0
 22 23  1  1
 24 22  1  0
 24 25  1  6
 24 41  1  0
 26 29  1  0
 30 31  1  0
 33 34  1  0
 34 35  2  0
 34 40  1  0
 35 36  1  0
 36 37  2  0
 37 38  1  0
 37 39  1  0
 39 40  2  0
 41 42  1  0
 42 43  2  0
 42 44  1  0
 44 45  1  0
 45 46  1  0
 46 47  1  0
 47 48  1  0
 48 49  1  0
 49 50  1  0
 50 51  1  0
 51 52  1  0
 52 53  1  0
 53 54  1  0
 54 55  1  0
 55 56  1  0
 56 57  1  0
 57 58  1  0
 58 59  1  0
 59 60  1  0
 60 61  1  0
 61 62  1  0
 62 63  1  0
 63 64  1  0
 64 65  1  0
 65 66  1  0
 66 67  1  0
 67 68  1  0
M  END
$$$$
