
     RDKit          3D

 68 69  0  0  0  0  0  0  0  0999 V2000
  -14.9378  -25.7208   20.6890 O   0  0  0  0  0  0  0  0  0  0  0  0
  -18.1929  -24.7416   21.9807 C   0  0  2  0  0  0  0  0  0  0  0  0
  -18.3709  -27.1955   22.4739 O   0  0  0  0  0  0  0  0  0  0  0  0
  -18.6448  -26.4589   20.2574 C   0  0  1  0  0  0  0  0  0  0  0  0
  -17.1440  -26.3812   19.9102 C   0  0  2  0  0  0  0  0  0  0  0  0
   -8.0715  -13.9159   25.3333 C   0  0  0  0  0  0  0  0  0  0  0  0
   -8.5308  -14.3549   23.9525 C   0  0  0  0  0  0  0  0  0  0  0  0
   -7.3912  -14.9907   23.1563 C   0  0  0  0  0  0  0  0  0  0  0  0
   -7.4432  -14.5758   21.6853 C   0  0  0  0  0  0  0  0  0  0  0  0
   -7.5523  -15.7569   20.7178 C   0  0  0  0  0  0  0  0  0  0  0  0
   -6.4208  -16.7742   20.8727 C   0  0  0  0  0  0  0  0  0  0  0  0
   -6.6014  -17.9587   19.9162 C   0  0  0  0  0  0  0  0  0  0  0  0
   -5.4076  -18.9195   19.9422 C   0  0  0  0  0  0  0  0  0  0  0  0
   -5.6949  -20.2547   19.2471 C   0  0  0  0  0  0  0  0  0  0  0  0
   -7.1230  -20.7562   19.4870 C   0  0  0  0  0  0  0  0  0  0  0  0
   -7.4223  -22.1066   18.8308 C   0  0  0  0  0  0  0  0  0  0  0  0
   -8.8723  -22.5688   19.0369 C   0  0  0  0  0  0  0  0  0  0  0  0
   -9.1728  -23.8836   18.3083 C   0  0  0  0  0  0  0  0  0  0  0  0
  -10.4410  -24.5682   18.8288 C   0  0  0  0  0  0  0  0  0  0  0  0
  -11.2461  -23.6909   19.8130 C   0  0  1  0  0  0  0  0  0  0  0  0
  -11.3390  -22.3694   19.2792 O   0  0  0  0  0  0  0  0  0  0  0  0
  -12.6437  -24.2680   20.1383 C   0  0  1  0  0  0  0  0  0  0  0  0
  -13.3950  -23.2660   20.8385 O   0  0  0  0  0  0  0  0  0  0  0  0
  -13.4321  -24.8633   18.9357 C   0  0  2  0  0  0  0  0  0  0  0  0
  -14.8709  -25.2738   19.3255 C   0  0  0  0  0  0  0  0  0  0  0  0
  -16.2871  -25.9499   21.1288 C   0  0  2  0  0  0  0  0  0  0  0  0
  -16.9667  -25.4186   18.8430 O   0  0  0  0  0  0  0  0  0  0  0  0
  -19.1428  -27.7881   20.0147 O   0  0  0  0  0  0  0  0  0  0  0  0
  -16.7794  -24.7356   21.6940 O   0  0  0  0  0  0  0  0  0  0  0  0
  -18.4048  -24.1443   23.3750 C   0  0  0  0  0  0  0  0  0  0  0  0
  -17.2511  -24.2801   24.1936 O   0  0  0  0  0  0  0  0  0  0  0  0
  -18.9078  -26.0949   21.7300 C   0  0  2  0  0  0  0  0  0  0  0  0
  -19.2867  -27.8909   23.3136 C   0  0  0  0  0  0  0  0  0  0  0  0
  -18.4894  -28.3096   24.5228 C   0  0  0  0  0  0  0  0  0  0  0  0
  -17.1844  -27.8533   24.7269 C   0  0  0  0  0  0  0  0  0  0  0  0
  -16.4901  -28.1930   25.8930 C   0  0  0  0  0  0  0  0  0  0  0  0
  -17.0863  -28.9967   26.8700 C   0  0  0  0  0  0  0  0  0  0  0  0
  -16.3736  -29.3061   28.1532 C   0  0  0  0  0  0  0  0  0  0  0  0
  -18.3892  -29.4600   26.6645 C   0  0  0  0  0  0  0  0  0  0  0  0
  -19.0800  -29.1276   25.4990 C   0  0  0  0  0  0  0  0  0  0  0  0
  -12.7366  -25.9712   18.2657 N   0  0  0  0  0  0  0  0  0  0  0  0
  -12.1133  -25.8181   17.0495 C   0  0  0  0  0  0  0  0  0  0  0  0
  -11.2765  -24.9420   16.8573 O   0  0  0  0  0  0  0  0  0  0  0  0
  -12.4978  -26.8485   16.0026 C   0  0  0  0  0  0  0  0  0  0  0  0
  -11.4147  -27.0203   14.9366 C   0  0  0  0  0  0  0  0  0  0  0  0
  -11.6192  -28.2580   14.0558 C   0  0  0  0  0  0  0  0  0  0  0  0
  -11.7744  -27.9397   12.5596 C   0  0  0  0  0  0  0  0  0  0  0  0
  -11.2142  -29.0298   11.6373 C   0  0  0  0  0  0  0  0  0  0  0  0
  -10.1626  -28.4806   10.6642 C   0  0  0  0  0  0  0  0  0  0  0  0
  -10.0567  -29.2971    9.3706 C   0  0  0  0  0  0  0  0  0  0  0  0
   -8.7247  -30.0374    9.2005 C   0  0  0  0  0  0  0  0  0  0  0  0
   -8.6826  -30.9247    7.9513 C   0  0  0  0  0  0  0  0  0  0  0  0
   -7.2839  -31.4999    7.7321 C   0  0  0  0  0  0  0  0  0  0  0  0
   -6.3371  -30.4655    7.1182 C   0  0  0  0  0  0  0  0  0  0  0  0
   -4.9508  -31.0700    6.8952 C   0  0  0  0  0  0  0  0  0  0  0  0
   -4.2378  -31.3894    8.2094 C   0  0  0  0  0  0  0  0  0  0  0  0
   -2.7300  -31.6160    8.0347 C   0  0  0  0  0  0  0  0  0  0  0  0
   -1.9577  -31.5851    9.3576 C   0  0  0  0  0  0  0  0  0  0  0  0
   -2.7517  -32.1182   10.5538 C   0  0  0  0  0  0  0  0  0  0  0  0
   -2.3179  -31.5191   11.8943 C   0  0  0  0  0  0  0  0  0  0  0  0
   -0.9868  -30.7631   11.8034 C   0  0  0  0  0  0  0  0  0  0  0  0
   -0.8303  -29.6752   12.8693 C   0  0  0  0  0  0  0  0  0  0  0  0
   -2.1071  -28.8361   12.9970 C   0  0  0  0  0  0  0  0  0  0  0  0
   -2.0076  -27.7411   14.0674 C   0  0  0  0  0  0  0  0  0  0  0  0
   -1.0440  -26.5960   13.7307 C   0  0  0  0  0  0  0  0  0  0  0  0
   -1.4266  -25.2101   14.2493 C   0  0  0  0  0  0  0  0  0  0  0  0
   -0.4591  -24.1091   13.8117 C   0  0  0  0  0  0  0  0  0  0  0  0
   -0.6253  -23.7871   12.3359 C   0  0  0  0  0  0  0  0  0  0  0  0
 25  1  1  0
 26  1  1  6
  2 29  1  0
  2 30  1  1
 32  2  1  0
 32  3  1  1
  3 33  1  0
  5  4  1  0
  4 28  1  1
  4 32  1  0
 26  5  1  0
  5 27  1  6
  7  6  1  0
  8  7  1  0
  9  8  1  0
 10  9  1  0
 11 10  1  0
 12 11  1  0
 13 12  1  0
 14 13  1  0
 15 14  1  0
 16 15  1  0
 17 16  1  0
 18 17  1  0
 19 18  1  0
 20 19  1  0
 20 21  1  6
 22 20  1  0
 22 23  1  6
 24 22  1  0
 24 25  1  1
 24 41  1  0
 26 29  1  0
 30 31  1  0
 33 34  1  0
 34 35  2  0
 34 40  1  0
 35 36  1  0
 36 37  2  0
 37 38  1  0
 37 39  1  0
 39 40  2  0
 41 42  1  0
 42 43  2  0
 42 44  1  0
 44 45  1  0
 45 46  1  0
 46 47  1  0
 47 48  1  0
 48 49  1  0
 49 50  1  0
 50 51  1  0
 51 52  1  0
 52 53  1  0
 53 54  1  0
 54 55  1  0
 55 56  1  0
 56 57  1  0
 57 58  1  0
 58 59  1  0
 59 60  1  0
 60 61  1  0
 61 62  1  0
 62 63  1  0
 63 64  1  0
 64 65  1  0
 65 66  1  0
 66 67  1  0
 67 68  1  0
M  END
$$$$
