
     RDKit          3D

 68 69  0  0  0  0  0  0  0  0999 V2000
  -16.0558  -25.0223   20.4751 O   0  0  0  0  0  0  0  0  0  0  0  0
  -18.2970  -25.1904   23.3337 C   0  0  2  0  0  0  0  0  0  0  0  0
  -17.6778  -22.7680   23.5466 O   0  0  0  0  0  0  0  0  0  0  0  0
  -16.1288  -24.4012   24.2277 C   0  0  1  0  0  0  0  0  0  0  0  0
  -15.5463  -24.6868   22.8283 C   0  0  2  0  0  0  0  0  0  0  0  0
   -2.9000  -21.8814   15.1616 C   0  0  0  0  0  0  0  0  0  0  0  0
   -3.1323  -23.3739   14.9928 C   0  0  0  0  0  0  0  0  0  0  0  0
   -4.2695  -23.6588   14.0118 C   0  0  0  0  0  0  0  0  0  0  0  0
   -4.5029  -25.1619   13.8541 C   0  0  0  0  0  0  0  0  0  0  0  0
   -5.4409  -25.5197   12.6988 C   0  0  0  0  0  0  0  0  0  0  0  0
   -5.5509  -27.0249   12.4508 C   0  0  0  0  0  0  0  0  0  0  0  0
   -6.6067  -27.6640   13.3605 C   0  0  0  0  0  0  0  0  0  0  0  0
   -7.8946  -28.0137   12.6067 C   0  0  0  0  0  0  0  0  0  0  0  0
   -9.1595  -27.5142   13.3132 C   0  0  0  0  0  0  0  0  0  0  0  0
  -10.1302  -28.6459   13.6676 C   0  0  0  0  0  0  0  0  0  0  0  0
  -11.1372  -28.2769   14.7601 C   0  0  0  0  0  0  0  0  0  0  0  0
  -12.0449  -29.4481   15.1637 C   0  0  0  0  0  0  0  0  0  0  0  0
  -13.4521  -28.9846   15.5572 C   0  0  0  0  0  0  0  0  0  0  0  0
  -13.6627  -28.9664   17.0749 C   0  0  0  0  0  0  0  0  0  0  0  0
  -13.9215  -27.5508   17.6366 C   0  0  1  0  0  0  0  0  0  0  0  0
  -13.5052  -26.5890   16.6663 O   0  0  0  0  0  0  0  0  0  0  0  0
  -15.3914  -27.3246   18.0614 C   0  0  1  0  0  0  0  0  0  0  0  0
  -16.2108  -28.2903   17.3870 O   0  0  0  0  0  0  0  0  0  0  0  0
  -15.6603  -27.2903   19.5940 C   0  0  2  0  0  0  0  0  0  0  0  0
  -16.6961  -26.2097   19.9817 C   0  0  0  0  0  0  0  0  0  0  0  0
  -16.6203  -24.5663   21.7160 C   0  0  2  0  0  0  0  0  0  0  0  0
  -15.0049  -26.0298   22.8194 O   0  0  0  0  0  0  0  0  0  0  0  0
  -15.4329  -23.2993   24.8401 O   0  0  0  0  0  0  0  0  0  0  0  0
  -17.7538  -25.3813   22.0114 O   0  0  0  0  0  0  0  0  0  0  0  0
  -19.8215  -25.0963   23.2200 C   0  0  0  0  0  0  0  0  0  0  0  0
  -20.3033  -25.6836   22.0190 O   0  0  0  0  0  0  0  0  0  0  0  0
  -17.6289  -24.0615   24.1611 C   0  0  2  0  0  0  0  0  0  0  0  0
  -18.0797  -21.6901   24.3857 C   0  0  0  0  0  0  0  0  0  0  0  0
  -18.0531  -20.4635   23.5094 C   0  0  0  0  0  0  0  0  0  0  0  0
  -18.3278  -19.1945   24.0262 C   0  0  0  0  0  0  0  0  0  0  0  0
  -18.2233  -18.0611   23.2126 C   0  0  0  0  0  0  0  0  0  0  0  0
  -17.8477  -18.1782   21.8706 C   0  0  0  0  0  0  0  0  0  0  0  0
  -17.6657  -16.9613   21.0126 C   0  0  0  0  0  0  0  0  0  0  0  0
  -17.5794  -19.4476   21.3498 C   0  0  0  0  0  0  0  0  0  0  0  0
  -17.6899  -20.5791   22.1582 C   0  0  0  0  0  0  0  0  0  0  0  0
  -14.4408  -27.1585   20.4034 N   0  0  0  0  0  0  0  0  0  0  0  0
  -13.8310  -28.2408   20.9934 C   0  0  0  0  0  0  0  0  0  0  0  0
  -14.4501  -29.2652   21.2618 O   0  0  0  0  0  0  0  0  0  0  0  0
  -12.3381  -28.0842   21.2221 C   0  0  0  0  0  0  0  0  0  0  0  0
  -11.9922  -26.7488   21.8825 C   0  0  0  0  0  0  0  0  0  0  0  0
  -10.6668  -26.1540   21.3936 C   0  0  0  0  0  0  0  0  0  0  0  0
  -10.3356  -24.7828   22.0052 C   0  0  0  0  0  0  0  0  0  0  0  0
   -9.1415  -24.0852   21.3416 C   0  0  0  0  0  0  0  0  0  0  0  0
   -7.8690  -24.1801   22.1937 C   0  0  0  0  0  0  0  0  0  0  0  0
   -6.6774  -23.4365   21.5786 C   0  0  0  0  0  0  0  0  0  0  0  0
   -5.5621  -24.3531   21.0616 C   0  0  0  0  0  0  0  0  0  0  0  0
   -4.1633  -23.9119   21.5067 C   0  0  0  0  0  0  0  0  0  0  0  0
   -3.0819  -24.7757   20.8588 C   0  0  0  0  0  0  0  0  0  0  0  0
   -2.5037  -24.1123   19.6062 C   0  0  0  0  0  0  0  0  0  0  0  0
   -1.3671  -24.9547   19.0269 C   0  0  0  0  0  0  0  0  0  0  0  0
   -1.3801  -24.9756   17.4982 C   0  0  0  0  0  0  0  0  0  0  0  0
   -2.0185  -23.7214   16.8860 C   0  0  0  0  0  0  0  0  0  0  0  0
   -3.1757  -24.0372   15.9328 C   0  0  0  0  0  0  0  0  0  0  0  0
   -2.9521  -25.2865   15.0757 C   0  0  0  0  0  0  0  0  0  0  0  0
   -2.4117  -24.9816   13.6759 C   0  0  0  0  0  0  0  0  0  0  0  0
   -1.9925  -26.2444   12.9135 C   0  0  0  0  0  0  0  0  0  0  0  0
   -3.1564  -27.1967   12.6260 C   0  0  0  0  0  0  0  0  0  0  0  0
   -3.2810  -27.4829   11.1250 C   0  0  0  0  0  0  0  0  0  0  0  0
   -3.8869  -28.8593   10.8192 C   0  0  0  0  0  0  0  0  0  0  0  0
   -4.1529  -29.1309    9.3332 C   0  0  0  0  0  0  0  0  0  0  0  0
   -5.6034  -29.4122    8.9420 C   0  0  0  0  0  0  0  0  0  0  0  0
   -5.7895  -29.6753    7.4467 C   0  0  0  0  0  0  0  0  0  0  0  0
   -6.9516  -28.8707    6.8884 C   0  0  0  0  0  0  0  0  0  0  0  0
 25  1  1  0
 26  1  1  6
  2 29  1  0
  2 30  1  6
 32  2  1  0
 32  3  1  6
  3 33  1  0
  5  4  1  0
  4 28  1  6
  4 32  1  0
 26  5  1  0
  5 27  1  1
  7  6  1  0
  8  7  1  0
  9  8  1  0
 10  9  1  0
 11 10  1  0
 12 11  1  0
 13 12  1  0
 14 13  1  0
 15 14  1  0
 16 15  1  0
 17 16  1  0
 18 17  1  0
 19 18  1  0
 20 19  1  0
 20 21  1  6
 22 20  1  0
 22 23  1  6
 24 22  1  0
 24 25  1  6
 24 41  1  0
 26 29  1  0
 30 31  1  0
 33 34  1  0
 34 35  2  0
 34 40  1  0
 35 36  1  0
 36 37  2  0
 37 38  1  0
 37 39  1  0
 39 40  2  0
 41 42  1  0
 42 43  2  0
 42 44  1  0
 44 45  1  0
 45 46  1  0
 46 47  1  0
 47 48  1  0
 48 49  1  0
 49 50  1  0
 50 51  1  0
 51 52  1  0
 52 53  1  0
 53 54  1  0
 54 55  1  0
 55 56  1  0
 56 57  1  0
 57 58  1  0
 58 59  1  0
 59 60  1  0
 60 61  1  0
 61 62  1  0
 62 63  1  0
 63 64  1  0
 64 65  1  0
 65 66  1  0
 66 67  1  0
 67 68  1  0
M  END
$$$$
