
     RDKit          3D

 68 69  0  0  0  0  0  0  0  0999 V2000
  -15.9511  -28.5950   19.5067 O   0  0  0  0  0  0  0  0  0  0  0  0
  -17.4346  -30.5502   22.1899 C   0  0  2  0  0  0  0  0  0  0  0  0
  -18.3024  -31.9164   20.2723 O   0  0  0  0  0  0  0  0  0  0  0  0
  -19.3206  -29.8507   20.7487 C   0  0  1  0  0  0  0  0  0  0  0  0
  -18.3031  -28.9733   19.9911 C   0  0  2  0  0  0  0  0  0  0  0  0
   -3.8385  -27.1151   10.7633 C   0  0  0  0  0  0  0  0  0  0  0  0
   -4.5175  -26.5331   11.9923 C   0  0  0  0  0  0  0  0  0  0  0  0
   -5.0405  -25.1208   11.7303 C   0  0  0  0  0  0  0  0  0  0  0  0
   -5.8361  -24.5932   12.9250 C   0  0  0  0  0  0  0  0  0  0  0  0
   -6.3282  -23.1547   12.7478 C   0  0  0  0  0  0  0  0  0  0  0  0
   -7.2179  -22.6725   13.8945 C   0  0  0  0  0  0  0  0  0  0  0  0
   -7.6919  -21.2327   13.6648 C   0  0  0  0  0  0  0  0  0  0  0  0
   -8.7159  -20.7794   14.7112 C   0  0  0  0  0  0  0  0  0  0  0  0
   -9.5810  -21.9273   15.2428 C   0  0  0  0  0  0  0  0  0  0  0  0
  -10.4894  -21.5015   16.4014 C   0  0  0  0  0  0  0  0  0  0  0  0
  -11.3006  -22.6509   17.0051 C   0  0  0  0  0  0  0  0  0  0  0  0
  -11.8420  -23.6262   15.9495 C   0  0  0  0  0  0  0  0  0  0  0  0
  -11.2649  -25.0372   16.1110 C   0  0  0  0  0  0  0  0  0  0  0  0
  -12.0647  -25.8902   17.1012 C   0  0  0  0  0  0  0  0  0  0  0  0
  -12.3573  -27.3146   16.5798 C   0  0  1  0  0  0  0  0  0  0  0  0
  -11.2206  -28.1400   16.8376 O   0  0  0  0  0  0  0  0  0  0  0  0
  -13.6465  -27.9272   17.1754 C   0  0  1  0  0  0  0  0  0  0  0  0
  -13.9242  -29.1547   16.4864 O   0  0  0  0  0  0  0  0  0  0  0  0
  -13.6670  -28.1012   18.7219 C   0  0  2  0  0  0  0  0  0  0  0  0
  -14.6803  -29.1773   19.1758 C   0  0  0  0  0  0  0  0  0  0  0  0
  -16.8657  -29.5503   20.0698 C   0  0  2  0  0  0  0  0  0  0  0  0
  -18.3131  -27.6478   20.5740 O   0  0  0  0  0  0  0  0  0  0  0  0
  -20.3536  -30.3005   19.8520 O   0  0  0  0  0  0  0  0  0  0  0  0
  -16.4830  -29.7824   21.4248 O   0  0  0  0  0  0  0  0  0  0  0  0
  -16.6693  -31.6116   22.9858 C   0  0  0  0  0  0  0  0  0  0  0  0
  -15.2890  -31.6381   22.6484 O   0  0  0  0  0  0  0  0  0  0  0  0
  -18.6486  -31.0814   21.3842 C   0  0  2  0  0  0  0  0  0  0  0  0
  -19.1287  -33.0571   20.0637 C   0  0  0  0  0  0  0  0  0  0  0  0
  -18.2192  -34.1171   19.4959 C   0  0  0  0  0  0  0  0  0  0  0  0
  -18.4111  -34.6266   18.2089 C   0  0  0  0  0  0  0  0  0  0  0  0
  -17.5109  -35.5541   17.6733 C   0  0  0  0  0  0  0  0  0  0  0  0
  -16.4090  -35.9899   18.4160 C   0  0  0  0  0  0  0  0  0  0  0  0
  -15.4023  -36.9298   17.8215 C   0  0  0  0  0  0  0  0  0  0  0  0
  -16.2191  -35.4867   19.7065 C   0  0  0  0  0  0  0  0  0  0  0  0
  -17.1198  -34.5671   20.2442 C   0  0  0  0  0  0  0  0  0  0  0  0
  -13.8779  -26.8441   19.4535 N   0  0  0  0  0  0  0  0  0  0  0  0
  -12.8979  -26.2751   20.2326 C   0  0  0  0  0  0  0  0  0  0  0  0
  -11.8030  -26.8067   20.3853 O   0  0  0  0  0  0  0  0  0  0  0  0
  -13.2597  -24.9251   20.8260 C   0  0  0  0  0  0  0  0  0  0  0  0
  -12.1723  -23.8776   20.5831 C   0  0  0  0  0  0  0  0  0  0  0  0
  -12.7252  -22.4614   20.3871 C   0  0  0  0  0  0  0  0  0  0  0  0
  -12.4844  -21.5269   21.5841 C   0  0  0  0  0  0  0  0  0  0  0  0
  -11.6498  -20.2872   21.2387 C   0  0  0  0  0  0  0  0  0  0  0  0
  -10.1907  -20.4268   21.6924 C   0  0  0  0  0  0  0  0  0  0  0  0
   -9.3111  -19.2483   21.2579 C   0  0  0  0  0  0  0  0  0  0  0  0
   -7.8499  -19.3524   21.7112 C   0  0  0  0  0  0  0  0  0  0  0  0
   -6.9798  -18.1925   21.2144 C   0  0  0  0  0  0  0  0  0  0  0  0
   -5.4939  -18.5221   21.3505 C   0  0  0  0  0  0  0  0  0  0  0  0
   -4.6145  -17.4362   20.7252 C   0  0  0  0  0  0  0  0  0  0  0  0
   -3.1405  -17.8374   20.7834 C   0  0  0  0  0  0  0  0  0  0  0  0
   -2.6766  -18.5335   19.5037 C   0  0  0  0  0  0  0  0  0  0  0  0
   -1.8835  -19.8195   19.7734 C   0  0  0  0  0  0  0  0  0  0  0  0
   -0.8423  -20.1245   18.6917 C   0  0  0  0  0  0  0  0  0  0  0  0
   -0.0589  -21.4188   18.9299 C   0  0  0  0  0  0  0  0  0  0  0  0
    0.7187  -21.9001   17.7020 C   0  0  0  0  0  0  0  0  0  0  0  0
    1.1654  -23.3625   17.8181 C   0  0  0  0  0  0  0  0  0  0  0  0
    1.8063  -23.9069   16.5386 C   0  0  0  0  0  0  0  0  0  0  0  0
    2.2566  -25.3612   16.7194 C   0  0  0  0  0  0  0  0  0  0  0  0
    1.2732  -26.3780   16.1244 C   0  0  0  0  0  0  0  0  0  0  0  0
    1.8514  -27.7817   15.9045 C   0  0  0  0  0  0  0  0  0  0  0  0
    0.8482  -28.8871   15.5764 C   0  0  0  0  0  0  0  0  0  0  0  0
    1.4822  -30.2762   15.4864 C   0  0  0  0  0  0  0  0  0  0  0  0
    0.4378  -31.3376   15.1829 C   0  0  0  0  0  0  0  0  0  0  0  0
 25  1  1  0
 26  1  1  1
  2 29  1  0
  2 30  1  6
 32  2  1  0
 32  3  1  6
  3 33  1  0
  5  4  1  0
  4 28  1  6
  4 32  1  0
 26  5  1  0
  5 27  1  1
  7  6  1  0
  8  7  1  0
  9  8  1  0
 10  9  1  0
 11 10  1  0
 12 11  1  0
 13 12  1  0
 14 13  1  0
 15 14  1  0
 16 15  1  0
 17 16  1  0
 18 17  1  0
 19 18  1  0
 20 19  1  0
 20 21  1  1
 22 20  1  0
 22 23  1  6
 24 22  1  0
 24 25  1  6
 24 41  1  0
 26 29  1  0
 30 31  1  0
 33 34  1  0
 34 35  2  0
 34 40  1  0
 35 36  1  0
 36 37  2  0
 37 38  1  0
 37 39  1  0
 39 40  2  0
 41 42  1  0
 42 43  2  0
 42 44  1  0
 44 45  1  0
 45 46  1  0
 46 47  1  0
 47 48  1  0
 48 49  1  0
 49 50  1  0
 50 51  1  0
 51 52  1  0
 52 53  1  0
 53 54  1  0
 54 55  1  0
 55 56  1  0
 56 57  1  0
 57 58  1  0
 58 59  1  0
 59 60  1  0
 60 61  1  0
 61 62  1  0
 62 63  1  0
 63 64  1  0
 64 65  1  0
 65 66  1  0
 66 67  1  0
 67 68  1  0
M  END
$$$$
