
     RDKit          3D

 68 69  0  0  0  0  0  0  0  0999 V2000
  -16.0380  -25.5434   21.3007 O   0  0  0  0  0  0  0  0  0  0  0  0
  -19.6463  -25.4751   21.7469 C   0  0  2  0  0  0  0  0  0  0  0  0
  -19.0932  -23.5561   23.2663 O   0  0  0  0  0  0  0  0  0  0  0  0
  -18.6957  -25.7497   24.0150 C   0  0  1  0  0  0  0  0  0  0  0  0
  -17.3270  -25.9264   23.3259 C   0  0  2  0  0  0  0  0  0  0  0  0
   -2.1143  -27.0923   17.1584 C   0  0  0  0  0  0  0  0  0  0  0  0
   -3.3108  -27.9813   16.8609 C   0  0  0  0  0  0  0  0  0  0  0  0
   -3.5032  -28.1812   15.3576 C   0  0  0  0  0  0  0  0  0  0  0  0
   -4.6631  -29.1350   15.0686 C   0  0  0  0  0  0  0  0  0  0  0  0
   -4.9824  -29.2794   13.5787 C   0  0  0  0  0  0  0  0  0  0  0  0
   -5.8543  -30.4951   13.2605 C   0  0  0  0  0  0  0  0  0  0  0  0
   -7.1231  -30.5116   14.1211 C   0  0  0  0  0  0  0  0  0  0  0  0
   -8.3026  -29.8103   13.4385 C   0  0  0  0  0  0  0  0  0  0  0  0
   -9.6392  -30.5259   13.6625 C   0  0  0  0  0  0  0  0  0  0  0  0
  -10.7993  -29.5564   13.9130 C   0  0  0  0  0  0  0  0  0  0  0  0
  -11.5503  -29.8163   15.2215 C   0  0  0  0  0  0  0  0  0  0  0  0
  -12.6874  -28.8151   15.4730 C   0  0  0  0  0  0  0  0  0  0  0  0
  -13.4437  -29.1086   16.7737 C   0  0  0  0  0  0  0  0  0  0  0  0
  -14.6346  -28.1683   16.9868 C   0  0  0  0  0  0  0  0  0  0  0  0
  -14.3620  -27.0693   18.0377 C   0  0  1  0  0  0  0  0  0  0  0  0
  -14.2393  -25.8140   17.3676 O   0  0  0  0  0  0  0  0  0  0  0  0
  -15.4347  -27.0127   19.1505 C   0  0  1  0  0  0  0  0  0  0  0  0
  -16.6566  -27.5546   18.6289 O   0  0  0  0  0  0  0  0  0  0  0  0
  -15.0388  -27.6544   20.5121 C   0  0  2  0  0  0  0  0  0  0  0  0
  -15.5391  -26.8245   21.7169 C   0  0  0  0  0  0  0  0  0  0  0  0
  -17.2616  -25.1856   21.9650 C   0  0  2  0  0  0  0  0  0  0  0  0
  -17.1003  -27.3396   23.1064 O   0  0  0  0  0  0  0  0  0  0  0  0
  -18.5258  -25.1388   25.3079 O   0  0  0  0  0  0  0  0  0  0  0  0
  -18.3489  -25.5679   21.1236 O   0  0  0  0  0  0  0  0  0  0  0  0
  -20.6078  -24.8037   20.7618 C   0  0  0  0  0  0  0  0  0  0  0  0
  -20.0208  -24.6296   19.4793 O   0  0  0  0  0  0  0  0  0  0  0  0
  -19.6459  -24.8751   23.1771 C   0  0  2  0  0  0  0  0  0  0  0  0
  -19.5717  -22.7468   24.3356 C   0  0  0  0  0  0  0  0  0  0  0  0
  -20.7005  -21.9340   23.7540 C   0  0  0  0  0  0  0  0  0  0  0  0
  -20.6216  -21.3969   22.4663 C   0  0  0  0  0  0  0  0  0  0  0  0
  -21.7103  -20.7106   21.9177 C   0  0  0  0  0  0  0  0  0  0  0  0
  -22.8917  -20.5463   22.6479 C   0  0  0  0  0  0  0  0  0  0  0  0
  -24.0863  -19.8733   22.0393 C   0  0  0  0  0  0  0  0  0  0  0  0
  -22.9702  -21.0767   23.9390 C   0  0  0  0  0  0  0  0  0  0  0  0
  -21.8828  -21.7553   24.4897 C   0  0  0  0  0  0  0  0  0  0  0  0
  -13.6019  -27.9379   20.6342 N   0  0  0  0  0  0  0  0  0  0  0  0
  -12.7005  -26.9903   21.0594 C   0  0  0  0  0  0  0  0  0  0  0  0
  -12.4065  -26.8626   22.2434 O   0  0  0  0  0  0  0  0  0  0  0  0
  -12.0648  -26.1726   19.9491 C   0  0  0  0  0  0  0  0  0  0  0  0
  -10.8570  -25.3731   20.4400 C   0  0  0  0  0  0  0  0  0  0  0  0
   -9.5816  -25.6415   19.6332 C   0  0  0  0  0  0  0  0  0  0  0  0
   -9.7334  -25.3881   18.1244 C   0  0  0  0  0  0  0  0  0  0  0  0
   -8.6328  -24.4961   17.5363 C   0  0  0  0  0  0  0  0  0  0  0  0
   -7.9219  -25.1601   16.3497 C   0  0  0  0  0  0  0  0  0  0  0  0
   -6.4719  -24.6914   16.1794 C   0  0  0  0  0  0  0  0  0  0  0  0
   -5.7259  -25.3609   15.0189 C   0  0  0  0  0  0  0  0  0  0  0  0
   -4.2184  -25.4894   15.2647 C   0  0  0  0  0  0  0  0  0  0  0  0
   -3.5406  -26.2617   14.1336 C   0  0  0  0  0  0  0  0  0  0  0  0
   -3.2868  -27.7214   14.5186 C   0  0  0  0  0  0  0  0  0  0  0  0
   -2.6579  -28.4843   13.3526 C   0  0  0  0  0  0  0  0  0  0  0  0
   -3.6832  -29.3167   12.5823 C   0  0  0  0  0  0  0  0  0  0  0  0
   -3.3561  -29.4391   11.0879 C   0  0  0  0  0  0  0  0  0  0  0  0
   -4.6023  -29.5660   10.2056 C   0  0  0  0  0  0  0  0  0  0  0  0
   -4.3106  -30.0552    8.7840 C   0  0  0  0  0  0  0  0  0  0  0  0
   -5.4076  -30.9543    8.2074 C   0  0  0  0  0  0  0  0  0  0  0  0
   -4.8616  -32.0089    7.2371 C   0  0  0  0  0  0  0  0  0  0  0  0
   -5.0229  -31.6228    5.7643 C   0  0  0  0  0  0  0  0  0  0  0  0
   -6.3534  -32.1338    5.1995 C   0  0  0  0  0  0  0  0  0  0  0  0
   -7.2301  -31.0192    4.6129 C   0  0  0  0  0  0  0  0  0  0  0  0
   -8.5350  -31.4991    3.9647 C   0  0  0  0  0  0  0  0  0  0  0  0
   -9.5355  -30.4147    3.5658 C   0  0  0  0  0  0  0  0  0  0  0  0
  -10.9916  -30.8077    3.8210 C   0  0  0  0  0  0  0  0  0  0  0  0
  -11.6098  -29.9462    4.9096 C   0  0  0  0  0  0  0  0  0  0  0  0
 25  1  1  0
 26  1  1  6
  2 29  1  0
  2 30  1  6
 32  2  1  0
 32  3  1  6
  3 33  1  0
  5  4  1  0
  4 28  1  1
  4 32  1  0
 26  5  1  0
  5 27  1  6
  7  6  1  0
  8  7  1  0
  9  8  1  0
 10  9  1  0
 11 10  1  0
 12 11  1  0
 13 12  1  0
 14 13  1  0
 15 14  1  0
 16 15  1  0
 17 16  1  0
 18 17  1  0
 19 18  1  0
 20 19  1  0
 20 21  1  6
 22 20  1  0
 22 23  1  6
 24 22  1  0
 24 25  1  1
 24 41  1  0
 26 29  1  0
 30 31  1  0
 33 34  1  0
 34 35  2  0
 34 40  1  0
 35 36  1  0
 36 37  2  0
 37 38  1  0
 37 39  1  0
 39 40  2  0
 41 42  1  0
 42 43  2  0
 42 44  1  0
 44 45  1  0
 45 46  1  0
 46 47  1  0
 47 48  1  0
 48 49  1  0
 49 50  1  0
 50 51  1  0
 51 52  1  0
 52 53  1  0
 53 54  1  0
 54 55  1  0
 55 56  1  0
 56 57  1  0
 57 58  1  0
 58 59  1  0
 59 60  1  0
 60 61  1  0
 61 62  1  0
 62 63  1  0
 63 64  1  0
 64 65  1  0
 65 66  1  0
 66 67  1  0
 67 68  1  0
M  END
$$$$
