
     RDKit          3D

 68 69  0  0  0  0  0  0  0  0999 V2000
  -13.6331  -30.6545   17.0914 O   0  0  0  0  0  0  0  0  0  0  0  0
  -15.6246  -33.6967   17.0433 C   0  0  2  0  0  0  0  0  0  0  0  0
  -14.7669  -33.8309   14.6890 O   0  0  0  0  0  0  0  0  0  0  0  0
  -16.4842  -32.3036   15.1876 C   0  0  1  0  0  0  0  0  0  0  0  0
  -15.5723  -31.1808   15.7230 C   0  0  2  0  0  0  0  0  0  0  0  0
   -7.9067  -14.6048   26.9604 C   0  0  0  0  0  0  0  0  0  0  0  0
   -8.6930  -15.6102   26.1351 C   0  0  0  0  0  0  0  0  0  0  0  0
   -7.8195  -16.7869   25.7001 C   0  0  0  0  0  0  0  0  0  0  0  0
   -8.0387  -17.1252   24.2250 C   0  0  0  0  0  0  0  0  0  0  0  0
   -7.2573  -18.3543   23.7544 C   0  0  0  0  0  0  0  0  0  0  0  0
   -7.5257  -18.7210   22.2940 C   0  0  0  0  0  0  0  0  0  0  0  0
   -8.6373  -19.7706   22.1781 C   0  0  0  0  0  0  0  0  0  0  0  0
   -8.6584  -20.4518   20.8053 C   0  0  0  0  0  0  0  0  0  0  0  0
  -10.0646  -20.8713   20.3635 C   0  0  0  0  0  0  0  0  0  0  0  0
  -10.0722  -22.1771   19.5613 C   0  0  0  0  0  0  0  0  0  0  0  0
  -10.6239  -23.3759   20.3374 C   0  0  0  0  0  0  0  0  0  0  0  0
  -11.8072  -24.0566   19.6338 C   0  0  0  0  0  0  0  0  0  0  0  0
  -12.0541  -25.4774   20.1539 C   0  0  0  0  0  0  0  0  0  0  0  0
  -13.3143  -26.1120   19.5564 C   0  0  0  0  0  0  0  0  0  0  0  0
  -13.6819  -27.4641   20.2069 C   0  0  1  0  0  0  0  0  0  0  0  0
  -14.9616  -27.3410   20.8291 O   0  0  0  0  0  0  0  0  0  0  0  0
  -13.6500  -28.6466   19.2105 C   0  0  1  0  0  0  0  0  0  0  0  0
  -14.7238  -29.5411   19.5356 O   0  0  0  0  0  0  0  0  0  0  0  0
  -13.6356  -28.2661   17.7014 C   0  0  2  0  0  0  0  0  0  0  0  0
  -14.2342  -29.3802   16.8119 C   0  0  0  0  0  0  0  0  0  0  0  0
  -14.3325  -31.7435   16.4658 C   0  0  2  0  0  0  0  0  0  0  0  0
  -16.3391  -30.3603   16.6371 O   0  0  0  0  0  0  0  0  0  0  0  0
  -16.6228  -32.1922   13.7586 O   0  0  0  0  0  0  0  0  0  0  0  0
  -14.7228  -32.6617   17.4859 O   0  0  0  0  0  0  0  0  0  0  0  0
  -15.1397  -35.0341   17.6106 C   0  0  0  0  0  0  0  0  0  0  0  0
  -14.1757  -34.8580   18.6398 O   0  0  0  0  0  0  0  0  0  0  0  0
  -15.9253  -33.6986   15.5218 C   0  0  2  0  0  0  0  0  0  0  0  0
  -14.9201  -34.6374   13.5255 C   0  0  0  0  0  0  0  0  0  0  0  0
  -14.2142  -35.9330   13.8355 C   0  0  0  0  0  0  0  0  0  0  0  0
  -14.8786  -36.9915   14.4608 C   0  0  0  0  0  0  0  0  0  0  0  0
  -14.2265  -38.2114   14.6705 C   0  0  0  0  0  0  0  0  0  0  0  0
  -12.9007  -38.3910   14.2634 C   0  0  0  0  0  0  0  0  0  0  0  0
  -12.2192  -39.7181   14.4217 C   0  0  0  0  0  0  0  0  0  0  0  0
  -12.2319  -37.3311   13.6440 C   0  0  0  0  0  0  0  0  0  0  0  0
  -12.8789  -36.1120   13.4405 C   0  0  0  0  0  0  0  0  0  0  0  0
  -12.3120  -27.8596   17.2088 N   0  0  0  0  0  0  0  0  0  0  0  0
  -12.1439  -26.8077   16.3390 C   0  0  0  0  0  0  0  0  0  0  0  0
  -13.0899  -26.1264   15.9575 O   0  0  0  0  0  0  0  0  0  0  0  0
  -10.7035  -26.5285   15.9482 C   0  0  0  0  0  0  0  0  0  0  0  0
  -10.6036  -25.6075   14.7314 C   0  0  0  0  0  0  0  0  0  0  0  0
  -11.0980  -24.1826   15.0051 C   0  0  0  0  0  0  0  0  0  0  0  0
  -10.9083  -23.2189   13.8222 C   0  0  0  0  0  0  0  0  0  0  0  0
   -9.8715  -22.1193   14.0844 C   0  0  0  0  0  0  0  0  0  0  0  0
  -10.4971  -20.8759   14.7300 C   0  0  0  0  0  0  0  0  0  0  0  0
   -9.7607  -19.5790   14.3734 C   0  0  0  0  0  0  0  0  0  0  0  0
   -8.2677  -19.5861   14.7229 C   0  0  0  0  0  0  0  0  0  0  0  0
   -7.8069  -18.3057   15.4282 C   0  0  0  0  0  0  0  0  0  0  0  0
   -7.4681  -18.5764   16.8935 C   0  0  0  0  0  0  0  0  0  0  0  0
   -6.9522  -17.3180   17.5963 C   0  0  0  0  0  0  0  0  0  0  0  0
   -6.6915  -17.5966   19.0766 C   0  0  0  0  0  0  0  0  0  0  0  0
   -6.0973  -16.3876   19.7997 C   0  0  0  0  0  0  0  0  0  0  0  0
   -5.8719  -16.6350   21.2974 C   0  0  0  0  0  0  0  0  0  0  0  0
   -5.3350  -15.4059   22.0381 C   0  0  0  0  0  0  0  0  0  0  0  0
   -6.1577  -15.0129   23.2687 C   0  0  0  0  0  0  0  0  0  0  0  0
   -6.0973  -16.0416   24.4011 C   0  0  0  0  0  0  0  0  0  0  0  0
   -4.9270  -17.0211   24.2512 C   0  0  0  0  0  0  0  0  0  0  0  0
   -3.7537  -16.7158   25.1862 C   0  0  0  0  0  0  0  0  0  0  0  0
   -4.0766  -15.5399   26.1155 C   0  0  0  0  0  0  0  0  0  0  0  0
   -2.9891  -15.2831   27.1674 C   0  0  0  0  0  0  0  0  0  0  0  0
   -3.3390  -14.2120   28.2082 C   0  0  0  0  0  0  0  0  0  0  0  0
   -2.7042  -12.8361   28.0084 C   0  0  0  0  0  0  0  0  0  0  0  0
   -1.7417  -12.4421   29.1302 C   0  0  0  0  0  0  0  0  0  0  0  0
   -1.2768  -11.0037   28.9744 C   0  0  0  0  0  0  0  0  0  0  0  0
 25  1  1  0
 26  1  1  1
  2 29  1  0
  2 30  1  6
 32  2  1  0
 32  3  1  6
  3 33  1  0
  5  4  1  0
  4 28  1  6
  4 32  1  0
 26  5  1  0
  5 27  1  1
  7  6  1  0
  8  7  1  0
  9  8  1  0
 10  9  1  0
 11 10  1  0
 12 11  1  0
 13 12  1  0
 14 13  1  0
 15 14  1  0
 16 15  1  0
 17 16  1  0
 18 17  1  0
 19 18  1  0
 20 19  1  0
 20 21  1  6
 22 20  1  0
 22 23  1  6
 24 22  1  0
 24 25  1  6
 24 41  1  0
 26 29  1  0
 30 31  1  0
 33 34  1  0
 34 35  2  0
 34 40  1  0
 35 36  1  0
 36 37  2  0
 37 38  1  0
 37 39  1  0
 39 40  2  0
 41 42  1  0
 42 43  2  0
 42 44  1  0
 44 45  1  0
 45 46  1  0
 46 47  1  0
 47 48  1  0
 48 49  1  0
 49 50  1  0
 50 51  1  0
 51 52  1  0
 52 53  1  0
 53 54  1  0
 54 55  1  0
 55 56  1  0
 56 57  1  0
 57 58  1  0
 58 59  1  0
 59 60  1  0
 60 61  1  0
 61 62  1  0
 62 63  1  0
 63 64  1  0
 64 65  1  0
 65 66  1  0
 66 67  1  0
 67 68  1  0
M  END
$$$$
