
     RDKit          3D

 68 69  0  0  0  0  0  0  0  0999 V2000
  -10.5826  -23.6815   20.1186 O   0  0  0  0  0  0  0  0  0  0  0  0
  -13.8306  -22.7598   18.7679 C   0  0  2  0  0  0  0  0  0  0  0  0
  -13.7390  -21.0442   20.5969 O   0  0  0  0  0  0  0  0  0  0  0  0
  -14.2204  -23.2772   21.1561 C   0  0  1  0  0  0  0  0  0  0  0  0
  -12.7586  -23.7677   21.1991 C   0  0  2  0  0  0  0  0  0  0  0  0
   -2.7783  -19.2258   21.0368 C   0  0  0  0  0  0  0  0  0  0  0  0
   -4.0536  -18.9809   21.8266 C   0  0  0  0  0  0  0  0  0  0  0  0
   -4.7598  -17.7033   21.3729 C   0  0  0  0  0  0  0  0  0  0  0  0
   -6.1576  -17.5951   21.9836 C   0  0  0  0  0  0  0  0  0  0  0  0
   -6.3311  -18.4095   23.2679 C   0  0  0  0  0  0  0  0  0  0  0  0
   -6.4276  -17.5451   24.5259 C   0  0  0  0  0  0  0  0  0  0  0  0
   -6.8131  -18.3835   25.7502 C   0  0  0  0  0  0  0  0  0  0  0  0
   -7.1006  -19.8457   25.3914 C   0  0  0  0  0  0  0  0  0  0  0  0
   -7.2949  -20.7397   26.6209 C   0  0  0  0  0  0  0  0  0  0  0  0
   -7.2395  -22.2340   26.2856 C   0  0  0  0  0  0  0  0  0  0  0  0
   -7.9679  -22.6044   24.9911 C   0  0  0  0  0  0  0  0  0  0  0  0
   -7.7174  -24.0547   24.5522 C   0  0  0  0  0  0  0  0  0  0  0  0
   -6.2265  -24.3553   24.3612 C   0  0  0  0  0  0  0  0  0  0  0  0
   -5.9532  -25.2125   23.1208 C   0  0  0  0  0  0  0  0  0  0  0  0
   -6.2415  -24.4740   21.7950 C   0  0  1  0  0  0  0  0  0  0  0  0
   -5.5133  -25.1135   20.7459 O   0  0  0  0  0  0  0  0  0  0  0  0
   -7.7496  -24.3863   21.4634 C   0  0  1  0  0  0  0  0  0  0  0  0
   -8.4607  -24.0749   22.6701 O   0  0  0  0  0  0  0  0  0  0  0  0
   -8.1355  -23.4390   20.2902 C   0  0  2  0  0  0  0  0  0  0  0  0
   -9.5229  -22.7884   20.4964 C   0  0  0  0  0  0  0  0  0  0  0  0
  -11.8734  -23.0494   20.1475 C   0  0  2  0  0  0  0  0  0  0  0  0
  -12.7422  -25.1918   20.9376 O   0  0  0  0  0  0  0  0  0  0  0  0
  -14.6014  -22.7381   22.4359 O   0  0  0  0  0  0  0  0  0  0  0  0
  -12.4449  -23.1525   18.8441 O   0  0  0  0  0  0  0  0  0  0  0  0
  -14.0122  -21.8682   17.5359 C   0  0  0  0  0  0  0  0  0  0  0  0
  -13.4034  -20.5952   17.7053 O   0  0  0  0  0  0  0  0  0  0  0  0
  -14.4252  -22.1924   20.0831 C   0  0  2  0  0  0  0  0  0  0  0  0
  -14.3326  -19.7810   20.3150 C   0  0  0  0  0  0  0  0  0  0  0  0
  -15.0729  -19.3928   21.5697 C   0  0  0  0  0  0  0  0  0  0  0  0
  -15.1829  -20.2718   22.6505 C   0  0  0  0  0  0  0  0  0  0  0  0
  -15.8084  -19.8640   23.8337 C   0  0  0  0  0  0  0  0  0  0  0  0
  -16.3373  -18.5750   23.9536 C   0  0  0  0  0  0  0  0  0  0  0  0
  -16.9461  -18.1089   25.2430 C   0  0  0  0  0  0  0  0  0  0  0  0
  -16.2346  -17.6964   22.8710 C   0  0  0  0  0  0  0  0  0  0  0  0
  -15.6172  -18.1041   21.6883 C   0  0  0  0  0  0  0  0  0  0  0  0
   -8.0479  -24.0734   18.9674 N   0  0  0  0  0  0  0  0  0  0  0  0
   -8.9670  -23.8292   17.9741 C   0  0  0  0  0  0  0  0  0  0  0  0
   -9.6043  -22.7822   17.9257 O   0  0  0  0  0  0  0  0  0  0  0  0
   -9.0771  -24.9220   16.9256 C   0  0  0  0  0  0  0  0  0  0  0  0
   -9.5360  -24.3788   15.5716 C   0  0  0  0  0  0  0  0  0  0  0  0
   -9.6491  -25.4589   14.4899 C   0  0  0  0  0  0  0  0  0  0  0  0
  -10.1379  -24.9315   13.1309 C   0  0  0  0  0  0  0  0  0  0  0  0
   -9.0232  -24.7975   12.0858 C   0  0  0  0  0  0  0  0  0  0  0  0
   -9.5008  -24.0744   10.8196 C   0  0  0  0  0  0  0  0  0  0  0  0
   -8.7514  -24.5160    9.5568 C   0  0  0  0  0  0  0  0  0  0  0  0
   -7.9594  -25.8192    9.7179 C   0  0  0  0  0  0  0  0  0  0  0  0
   -7.3244  -26.3051    8.4102 C   0  0  0  0  0  0  0  0  0  0  0  0
   -6.6449  -27.6607    8.5993 C   0  0  0  0  0  0  0  0  0  0  0  0
   -5.9803  -27.7732    9.9737 C   0  0  0  0  0  0  0  0  0  0  0  0
   -4.9346  -28.8883    9.9766 C   0  0  0  0  0  0  0  0  0  0  0  0
   -4.8498  -29.6089    8.6308 C   0  0  0  0  0  0  0  0  0  0  0  0
   -3.4984  -30.2999    8.4040 C   0  0  0  0  0  0  0  0  0  0  0  0
   -3.0264  -31.1142    9.6130 C   0  0  0  0  0  0  0  0  0  0  0  0
   -1.6884  -31.8278    9.3982 C   0  0  0  0  0  0  0  0  0  0  0  0
   -1.5054  -32.3742    7.9797 C   0  0  0  0  0  0  0  0  0  0  0  0
   -2.2270  -33.7094    7.7604 C   0  0  0  0  0  0  0  0  0  0  0  0
   -1.2817  -34.9131    7.7206 C   0  0  0  0  0  0  0  0  0  0  0  0
   -2.0591  -36.2318    7.8049 C   0  0  0  0  0  0  0  0  0  0  0  0
   -3.5496  -36.0374    8.1141 C   0  0  0  0  0  0  0  0  0  0  0  0
   -4.4538  -37.2006    7.6870 C   0  0  0  0  0  0  0  0  0  0  0  0
   -5.7088  -36.8319    6.8964 C   0  0  0  0  0  0  0  0  0  0  0  0
   -7.0089  -37.2001    7.6136 C   0  0  0  0  0  0  0  0  0  0  0  0
   -8.1959  -36.4709    7.0066 C   0  0  0  0  0  0  0  0  0  0  0  0
 25  1  1  0
 26  1  1  6
  2 29  1  0
  2 30  1  6
 32  2  1  0
 32  3  1  1
  3 33  1  0
  5  4  1  0
  4 28  1  1
  4 32  1  0
 26  5  1  0
  5 27  1  6
  7  6  1  0
  8  7  1  0
  9  8  1  0
 10  9  1  0
 11 10  1  0
 12 11  1  0
 13 12  1  0
 14 13  1  0
 15 14  1  0
 16 15  1  0
 17 16  1  0
 18 17  1  0
 19 18  1  0
 20 19  1  0
 20 21  1  6
 22 20  1  0
 22 23  1  1
 24 22  1  0
 24 25  1  1
 24 41  1  0
 26 29  1  0
 30 31  1  0
 33 34  1  0
 34 35  2  0
 34 40  1  0
 35 36  1  0
 36 37  2  0
 37 38  1  0
 37 39  1  0
 39 40  2  0
 41 42  1  0
 42 43  2  0
 42 44  1  0
 44 45  1  0
 45 46  1  0
 46 47  1  0
 47 48  1  0
 48 49  1  0
 49 50  1  0
 50 51  1  0
 51 52  1  0
 52 53  1  0
 53 54  1  0
 54 55  1  0
 55 56  1  0
 56 57  1  0
 57 58  1  0
 58 59  1  0
 59 60  1  0
 60 61  1  0
 61 62  1  0
 62 63  1  0
 63 64  1  0
 64 65  1  0
 65 66  1  0
 66 67  1  0
 67 68  1  0
M  END
$$$$
