
     RDKit          3D

 68 69  0  0  0  0  0  0  0  0999 V2000
  -14.7866  -28.5927   20.4841 O   0  0  0  0  0  0  0  0  0  0  0  0
  -15.2728  -25.5779   22.4583 C   0  0  2  0  0  0  0  0  0  0  0  0
  -17.1132  -26.9404   23.4847 O   0  0  0  0  0  0  0  0  0  0  0  0
  -17.4425  -26.0103   21.3500 C   0  0  1  0  0  0  0  0  0  0  0  0
  -16.7195  -27.1203   20.5600 C   0  0  2  0  0  0  0  0  0  0  0  0
   -5.7790  -12.3957   17.3813 C   0  0  0  0  0  0  0  0  0  0  0  0
   -5.8250  -13.4037   18.5180 C   0  0  0  0  0  0  0  0  0  0  0  0
   -7.1695  -14.1290   18.5727 C   0  0  0  0  0  0  0  0  0  0  0  0
   -7.0910  -15.3777   19.4520 C   0  0  0  0  0  0  0  0  0  0  0  0
   -8.4392  -16.0746   19.6504 C   0  0  0  0  0  0  0  0  0  0  0  0
   -8.3773  -17.2475   20.6300 C   0  0  0  0  0  0  0  0  0  0  0  0
   -9.3765  -18.3459   20.2482 C   0  0  0  0  0  0  0  0  0  0  0  0
   -9.2775  -19.5713   21.1636 C   0  0  0  0  0  0  0  0  0  0  0  0
  -10.6183  -19.9595   21.7961 C   0  0  0  0  0  0  0  0  0  0  0  0
  -10.7430  -21.4656   22.0506 C   0  0  0  0  0  0  0  0  0  0  0  0
  -10.2420  -22.3318   20.8921 C   0  0  0  0  0  0  0  0  0  0  0  0
  -11.2483  -23.4115   20.4676 C   0  0  0  0  0  0  0  0  0  0  0  0
  -10.7379  -24.2522   19.2918 C   0  0  0  0  0  0  0  0  0  0  0  0
  -11.6136  -24.1096   18.0425 C   0  0  0  0  0  0  0  0  0  0  0  0
  -12.3134  -25.4255   17.6361 C   0  0  1  0  0  0  0  0  0  0  0  0
  -11.3211  -26.3604   17.2106 O   0  0  0  0  0  0  0  0  0  0  0  0
  -13.1997  -26.0144   18.7585 C   0  0  1  0  0  0  0  0  0  0  0  0
  -14.4737  -25.3554   18.7216 O   0  0  0  0  0  0  0  0  0  0  0  0
  -13.3377  -27.5646   18.7752 C   0  0  2  0  0  0  0  0  0  0  0  0
  -13.4560  -28.1256   20.2113 C   0  0  0  0  0  0  0  0  0  0  0  0
  -15.5171  -27.7044   21.3464 C   0  0  2  0  0  0  0  0  0  0  0  0
  -16.2421  -26.5621   19.3121 O   0  0  0  0  0  0  0  0  0  0  0  0
  -18.8239  -26.3633   21.5520 O   0  0  0  0  0  0  0  0  0  0  0  0
  -14.6305  -26.6680   21.7659 O   0  0  0  0  0  0  0  0  0  0  0  0
  -14.4371  -25.2324   23.6944 C   0  0  0  0  0  0  0  0  0  0  0  0
  -13.6383  -26.3278   24.1206 O   0  0  0  0  0  0  0  0  0  0  0  0
  -16.7887  -25.7709   22.7230 C   0  0  2  0  0  0  0  0  0  0  0  0
  -18.3115  -26.8768   24.2512 C   0  0  0  0  0  0  0  0  0  0  0  0
  -17.9777  -26.0323   25.4547 C   0  0  0  0  0  0  0  0  0  0  0  0
  -18.9802  -25.4519   26.2363 C   0  0  0  0  0  0  0  0  0  0  0  0
  -18.6509  -24.7354   27.3920 C   0  0  0  0  0  0  0  0  0  0  0  0
  -17.3164  -24.5837   27.7816 C   0  0  0  0  0  0  0  0  0  0  0  0
  -16.9616  -23.8772   29.0564 C   0  0  0  0  0  0  0  0  0  0  0  0
  -16.3115  -25.1575   26.9971 C   0  0  0  0  0  0  0  0  0  0  0  0
  -16.6382  -25.8664   25.8409 C   0  0  0  0  0  0  0  0  0  0  0  0
  -12.2784  -28.2586   18.0294 N   0  0  0  0  0  0  0  0  0  0  0  0
  -12.1087  -28.0972   16.6743 C   0  0  0  0  0  0  0  0  0  0  0  0
  -12.8248  -27.3488   16.0173 O   0  0  0  0  0  0  0  0  0  0  0  0
  -10.9389  -28.8640   16.0833 C   0  0  0  0  0  0  0  0  0  0  0  0
  -10.8512  -28.7031   14.5649 C   0  0  0  0  0  0  0  0  0  0  0  0
  -10.2420  -27.3657   14.1294 C   0  0  0  0  0  0  0  0  0  0  0  0
  -10.0887  -27.2168   12.6068 C   0  0  0  0  0  0  0  0  0  0  0  0
   -8.7903  -26.5178   12.1845 C   0  0  0  0  0  0  0  0  0  0  0  0
   -8.2285  -27.0833   10.8734 C   0  0  0  0  0  0  0  0  0  0  0  0
   -7.1034  -26.2252   10.2824 C   0  0  0  0  0  0  0  0  0  0  0  0
   -5.9920  -25.8715   11.2780 C   0  0  0  0  0  0  0  0  0  0  0  0
   -4.9009  -24.9810   10.6731 C   0  0  0  0  0  0  0  0  0  0  0  0
   -3.7966  -24.6963   11.6903 C   0  0  0  0  0  0  0  0  0  0  0  0
   -4.3624  -24.5015   13.0993 C   0  0  0  0  0  0  0  0  0  0  0  0
   -4.6318  -23.0215   13.3714 C   0  0  0  0  0  0  0  0  0  0  0  0
   -4.5518  -22.6803   14.8596 C   0  0  0  0  0  0  0  0  0  0  0  0
   -5.6749  -23.3237   15.6843 C   0  0  0  0  0  0  0  0  0  0  0  0
   -5.2522  -23.6646   17.1169 C   0  0  0  0  0  0  0  0  0  0  0  0
   -4.7522  -25.1016   17.2925 C   0  0  0  0  0  0  0  0  0  0  0  0
   -5.2153  -25.7573   18.5962 C   0  0  0  0  0  0  0  0  0  0  0  0
   -4.7693  -27.2196   18.7161 C   0  0  0  0  0  0  0  0  0  0  0  0
   -5.8028  -28.2169   18.1858 C   0  0  0  0  0  0  0  0  0  0  0  0
   -5.2577  -28.9926   16.9809 C   0  0  0  0  0  0  0  0  0  0  0  0
   -6.2575  -30.0083   16.4119 C   0  0  0  0  0  0  0  0  0  0  0  0
   -5.7200  -30.8658   15.2592 C   0  0  0  0  0  0  0  0  0  0  0  0
   -6.5493  -30.8769   13.9754 C   0  0  0  0  0  0  0  0  0  0  0  0
   -5.8213  -31.5076   12.7871 C   0  0  0  0  0  0  0  0  0  0  0  0
   -6.4603  -31.0964   11.4710 C   0  0  0  0  0  0  0  0  0  0  0  0
 25  1  1  0
 26  1  1  6
  2 29  1  0
  2 30  1  1
 32  2  1  0
 32  3  1  1
  3 33  1  0
  5  4  1  0
  4 28  1  1
  4 32  1  0
 26  5  1  0
  5 27  1  6
  7  6  1  0
  8  7  1  0
  9  8  1  0
 10  9  1  0
 11 10  1  0
 12 11  1  0
 13 12  1  0
 14 13  1  0
 15 14  1  0
 16 15  1  0
 17 16  1  0
 18 17  1  0
 19 18  1  0
 20 19  1  0
 20 21  1  1
 22 20  1  0
 22 23  1  6
 24 22  1  0
 24 25  1  1
 24 41  1  0
 26 29  1  0
 30 31  1  0
 33 34  1  0
 34 35  2  0
 34 40  1  0
 35 36  1  0
 36 37  2  0
 37 38  1  0
 37 39  1  0
 39 40  2  0
 41 42  1  0
 42 43  2  0
 42 44  1  0
 44 45  1  0
 45 46  1  0
 46 47  1  0
 47 48  1  0
 48 49  1  0
 49 50  1  0
 50 51  1  0
 51 52  1  0
 52 53  1  0
 53 54  1  0
 54 55  1  0
 55 56  1  0
 56 57  1  0
 57 58  1  0
 58 59  1  0
 59 60  1  0
 60 61  1  0
 61 62  1  0
 62 63  1  0
 63 64  1  0
 64 65  1  0
 65 66  1  0
 66 67  1  0
 67 68  1  0
M  END
$$$$
