
     RDKit          3D

 68 69  0  0  0  0  0  0  0  0999 V2000
  -15.9994  -26.7691   18.2000 O   0  0  0  0  0  0  0  0  0  0  0  0
  -18.4109  -28.3167   20.4389 C   0  0  2  0  0  0  0  0  0  0  0  0
  -20.0566  -27.2152   18.8978 O   0  0  0  0  0  0  0  0  0  0  0  0
  -18.9190  -25.8952   20.4771 C   0  0  1  0  0  0  0  0  0  0  0  0
  -17.6318  -25.7001   19.6500 C   0  0  2  0  0  0  0  0  0  0  0  0
   -8.1559  -25.8395    4.4016 C   0  0  0  0  0  0  0  0  0  0  0  0
   -7.1647  -25.9897    5.5442 C   0  0  0  0  0  0  0  0  0  0  0  0
   -7.1035  -27.4309    6.0500 C   0  0  0  0  0  0  0  0  0  0  0  0
   -6.1764  -27.5554    7.2599 C   0  0  0  0  0  0  0  0  0  0  0  0
   -6.3770  -28.8468    8.0566 C   0  0  0  0  0  0  0  0  0  0  0  0
   -6.0438  -28.7008    9.5422 C   0  0  0  0  0  0  0  0  0  0  0  0
   -7.1016  -29.3800   10.4199 C   0  0  0  0  0  0  0  0  0  0  0  0
   -6.4984  -30.4375   11.3511 C   0  0  0  0  0  0  0  0  0  0  0  0
   -7.4924  -30.9564   12.3958 C   0  0  0  0  0  0  0  0  0  0  0  0
   -7.8095  -29.9224   13.4816 C   0  0  0  0  0  0  0  0  0  0  0  0
   -9.1298  -30.1791   14.2127 C   0  0  0  0  0  0  0  0  0  0  0  0
   -9.2439  -29.4120   15.5383 C   0  0  0  0  0  0  0  0  0  0  0  0
  -10.5322  -29.7502   16.2970 C   0  0  0  0  0  0  0  0  0  0  0  0
  -10.5263  -29.2172   17.7336 C   0  0  0  0  0  0  0  0  0  0  0  0
  -11.8093  -29.5690   18.5188 C   0  0  1  0  0  0  0  0  0  0  0  0
  -11.7385  -28.9615   19.8094 O   0  0  0  0  0  0  0  0  0  0  0  0
  -13.1056  -29.1682   17.7764 C   0  0  1  0  0  0  0  0  0  0  0  0
  -13.7002  -30.3548   17.2315 O   0  0  0  0  0  0  0  0  0  0  0  0
  -14.1236  -28.3195   18.5924 C   0  0  2  0  0  0  0  0  0  0  0  0
  -15.4058  -28.0098   17.7857 C   0  0  0  0  0  0  0  0  0  0  0  0
  -17.2958  -26.9492   18.7943 C   0  0  2  0  0  0  0  0  0  0  0  0
  -16.5347  -25.4405   20.5588 O   0  0  0  0  0  0  0  0  0  0  0  0
  -19.8865  -24.8845   20.1364 O   0  0  0  0  0  0  0  0  0  0  0  0
  -17.2515  -28.1242   19.6028 O   0  0  0  0  0  0  0  0  0  0  0  0
  -18.8435  -29.7821   20.3337 C   0  0  0  0  0  0  0  0  0  0  0  0
  -17.9888  -30.6442   21.0726 O   0  0  0  0  0  0  0  0  0  0  0  0
  -19.5464  -27.2801   20.2352 C   0  0  2  0  0  0  0  0  0  0  0  0
  -21.1116  -28.1187   18.5847 C   0  0  0  0  0  0  0  0  0  0  0  0
  -22.3857  -27.3372   18.7824 C   0  0  0  0  0  0  0  0  0  0  0  0
  -22.4090  -26.1647   19.5424 C   0  0  0  0  0  0  0  0  0  0  0  0
  -23.5850  -25.4144   19.6502 C   0  0  0  0  0  0  0  0  0  0  0  0
  -24.7556  -25.8258   19.0050 C   0  0  0  0  0  0  0  0  0  0  0  0
  -25.9996  -24.9892   19.0590 C   0  0  0  0  0  0  0  0  0  0  0  0
  -24.7362  -27.0022   18.2500 C   0  0  0  0  0  0  0  0  0  0  0  0
  -23.5661  -27.7548   18.1474 C   0  0  0  0  0  0  0  0  0  0  0  0
  -13.5491  -27.0882   19.1525 N   0  0  0  0  0  0  0  0  0  0  0  0
  -13.9899  -26.5452   20.3366 C   0  0  0  0  0  0  0  0  0  0  0  0
  -14.9028  -27.0520   20.9804 O   0  0  0  0  0  0  0  0  0  0  0  0
  -13.2205  -25.3214   20.8014 C   0  0  0  0  0  0  0  0  0  0  0  0
  -12.1273  -24.9165   19.8115 C   0  0  0  0  0  0  0  0  0  0  0  0
  -11.9569  -23.3987   19.6813 C   0  0  0  0  0  0  0  0  0  0  0  0
  -12.0637  -22.6426   21.0157 C   0  0  0  0  0  0  0  0  0  0  0  0
  -11.7407  -21.1473   20.9033 C   0  0  0  0  0  0  0  0  0  0  0  0
  -10.3274  -20.8212   21.4036 C   0  0  0  0  0  0  0  0  0  0  0  0
  -10.2421  -19.4705   22.1245 C   0  0  0  0  0  0  0  0  0  0  0  0
   -9.1948  -18.5122   21.5446 C   0  0  0  0  0  0  0  0  0  0  0  0
   -8.2902  -17.8884   22.6132 C   0  0  0  0  0  0  0  0  0  0  0  0
   -9.0102  -16.7628   23.3545 C   0  0  0  0  0  0  0  0  0  0  0  0
   -8.0482  -15.6387   23.7474 C   0  0  0  0  0  0  0  0  0  0  0  0
   -8.7915  -14.5296   24.4920 C   0  0  0  0  0  0  0  0  0  0  0  0
   -7.8806  -13.3523   24.8408 C   0  0  0  0  0  0  0  0  0  0  0  0
   -7.1303  -12.7928   23.6244 C   0  0  0  0  0  0  0  0  0  0  0  0
   -5.6965  -12.3596   23.9466 C   0  0  0  0  0  0  0  0  0  0  0  0
   -4.6253  -13.3324   23.4446 C   0  0  0  0  0  0  0  0  0  0  0  0
   -3.9995  -14.1818   24.5542 C   0  0  0  0  0  0  0  0  0  0  0  0
   -2.9660  -15.1828   24.0238 C   0  0  0  0  0  0  0  0  0  0  0  0
   -2.3592  -16.0678   25.1159 C   0  0  0  0  0  0  0  0  0  0  0  0
   -2.5997  -17.5534   24.8232 C   0  0  0  0  0  0  0  0  0  0  0  0
   -1.4076  -18.4448   25.1963 C   0  0  0  0  0  0  0  0  0  0  0  0
   -1.5508  -19.9168   24.7891 C   0  0  0  0  0  0  0  0  0  0  0  0
   -0.5232  -20.8869   25.3714 C   0  0  0  0  0  0  0  0  0  0  0  0
   -0.7150  -22.3298   24.9011 C   0  0  0  0  0  0  0  0  0  0  0  0
    0.3134  -23.2538   25.5320 C   0  0  0  0  0  0  0  0  0  0  0  0
 25  1  1  0
 26  1  1  1
  2 29  1  0
  2 30  1  6
 32  2  1  0
 32  3  1  6
  3 33  1  0
  5  4  1  0
  4 28  1  6
  4 32  1  0
 26  5  1  0
  5 27  1  1
  7  6  1  0
  8  7  1  0
  9  8  1  0
 10  9  1  0
 11 10  1  0
 12 11  1  0
 13 12  1  0
 14 13  1  0
 15 14  1  0
 16 15  1  0
 17 16  1  0
 18 17  1  0
 19 18  1  0
 20 19  1  0
 20 21  1  1
 22 20  1  0
 22 23  1  1
 24 22  1  0
 24 25  1  6
 24 41  1  0
 26 29  1  0
 30 31  1  0
 33 34  1  0
 34 35  2  0
 34 40  1  0
 35 36  1  0
 36 37  2  0
 37 38  1  0
 37 39  1  0
 39 40  2  0
 41 42  1  0
 42 43  2  0
 42 44  1  0
 44 45  1  0
 45 46  1  0
 46 47  1  0
 47 48  1  0
 48 49  1  0
 49 50  1  0
 50 51  1  0
 51 52  1  0
 52 53  1  0
 53 54  1  0
 54 55  1  0
 55 56  1  0
 56 57  1  0
 57 58  1  0
 58 59  1  0
 59 60  1  0
 60 61  1  0
 61 62  1  0
 62 63  1  0
 63 64  1  0
 64 65  1  0
 65 66  1  0
 66 67  1  0
 67 68  1  0
M  END
$$$$
