
     RDKit          3D

 68 69  0  0  0  0  0  0  0  0999 V2000
  -12.3425  -24.2935   19.1864 O   0  0  0  0  0  0  0  0  0  0  0  0
  -14.7870  -23.4188   21.7326 C   0  0  2  0  0  0  0  0  0  0  0  0
  -16.1281  -25.2080   20.5936 O   0  0  0  0  0  0  0  0  0  0  0  0
  -15.9359  -23.1025   19.5639 C   0  0  1  0  0  0  0  0  0  0  0  0
  -14.5666  -23.3546   18.9001 C   0  0  2  0  0  0  0  0  0  0  0  0
   -1.8191  -32.3631    7.4928 C   0  0  0  0  0  0  0  0  0  0  0  0
   -3.1567  -32.5335    8.1943 C   0  0  0  0  0  0  0  0  0  0  0  0
   -4.1941  -31.5369    7.6771 C   0  0  0  0  0  0  0  0  0  0  0  0
   -5.5747  -31.8131    8.2740 C   0  0  0  0  0  0  0  0  0  0  0  0
   -6.6709  -30.8884    7.7391 C   0  0  0  0  0  0  0  0  0  0  0  0
   -6.3953  -29.4069    8.0001 C   0  0  0  0  0  0  0  0  0  0  0  0
   -7.0709  -28.9335    9.2925 C   0  0  0  0  0  0  0  0  0  0  0  0
   -8.5234  -29.4102    9.4023 C   0  0  0  0  0  0  0  0  0  0  0  0
   -8.8970  -29.8810   10.8119 C   0  0  0  0  0  0  0  0  0  0  0  0
   -8.4820  -28.8866   11.9017 C   0  0  0  0  0  0  0  0  0  0  0  0
   -8.9037  -29.3046   13.3128 C   0  0  0  0  0  0  0  0  0  0  0  0
   -8.5810  -28.2454   14.3770 C   0  0  0  0  0  0  0  0  0  0  0  0
   -8.5872  -28.8256   15.7959 C   0  0  0  0  0  0  0  0  0  0  0  0
   -9.4131  -27.9822   16.7728 C   0  0  0  0  0  0  0  0  0  0  0  0
  -10.8974  -27.8559   16.3639 C   0  0  1  0  0  0  0  0  0  0  0  0
  -11.4759  -29.1613   16.3275 O   0  0  0  0  0  0  0  0  0  0  0  0
  -11.7025  -26.9070   17.2823 C   0  0  1  0  0  0  0  0  0  0  0  0
  -11.7211  -27.4648   18.6040 O   0  0  0  0  0  0  0  0  0  0  0  0
  -11.2584  -25.4152   17.2778 C   0  0  2  0  0  0  0  0  0  0  0  0
  -12.3820  -24.4694   17.7614 C   0  0  0  0  0  0  0  0  0  0  0  0
  -13.6540  -24.2540   19.7739 C   0  0  2  0  0  0  0  0  0  0  0  0
  -13.9134  -22.0793   18.6913 O   0  0  0  0  0  0  0  0  0  0  0  0
  -16.9962  -23.5687   18.7084 O   0  0  0  0  0  0  0  0  0  0  0  0
  -13.5309  -23.7259   21.0938 O   0  0  0  0  0  0  0  0  0  0  0  0
  -14.7416  -23.9525   23.1674 C   0  0  0  0  0  0  0  0  0  0  0  0
  -13.4435  -24.4061   23.5263 O   0  0  0  0  0  0  0  0  0  0  0  0
  -16.0491  -23.8158   20.9234 C   0  0  2  0  0  0  0  0  0  0  0  0
  -16.6793  -26.0589   21.5934 C   0  0  0  0  0  0  0  0  0  0  0  0
  -16.9799  -27.3611   20.8957 C   0  0  0  0  0  0  0  0  0  0  0  0
  -16.5548  -28.5835   21.4227 C   0  0  0  0  0  0  0  0  0  0  0  0
  -16.9097  -29.7848   20.7994 C   0  0  0  0  0  0  0  0  0  0  0  0
  -17.6899  -29.7832   19.6388 C   0  0  0  0  0  0  0  0  0  0  0  0
  -18.1323  -31.0694   19.0062 C   0  0  0  0  0  0  0  0  0  0  0  0
  -18.1104  -28.5610   19.1060 C   0  0  0  0  0  0  0  0  0  0  0  0
  -17.7514  -27.3623   19.7227 C   0  0  0  0  0  0  0  0  0  0  0  0
  -10.7168  -24.9655   15.9878 N   0  0  0  0  0  0  0  0  0  0  0  0
  -10.8645  -23.6736   15.5400 C   0  0  0  0  0  0  0  0  0  0  0  0
  -11.3230  -23.4221   14.4304 O   0  0  0  0  0  0  0  0  0  0  0  0
  -10.4765  -22.6032   16.5446 C   0  0  0  0  0  0  0  0  0  0  0  0
  -10.3778  -21.2183   15.9033 C   0  0  0  0  0  0  0  0  0  0  0  0
  -11.6910  -20.4294   15.9548 C   0  0  0  0  0  0  0  0  0  0  0  0
  -11.5056  -18.9047   15.8844 C   0  0  0  0  0  0  0  0  0  0  0  0
  -11.6665  -18.2021   17.2384 C   0  0  0  0  0  0  0  0  0  0  0  0
  -10.5064  -18.5128   18.1933 C   0  0  0  0  0  0  0  0  0  0  0  0
   -9.8333  -17.2528   18.7507 C   0  0  0  0  0  0  0  0  0  0  0  0
  -10.5104  -16.6778   20.0006 C   0  0  0  0  0  0  0  0  0  0  0  0
   -9.9227  -17.2194   21.3086 C   0  0  0  0  0  0  0  0  0  0  0  0
  -10.6756  -16.6693   22.5192 C   0  0  0  0  0  0  0  0  0  0  0  0
   -9.9005  -16.8989   23.8192 C   0  0  0  0  0  0  0  0  0  0  0  0
   -8.4743  -16.3619   23.6976 C   0  0  0  0  0  0  0  0  0  0  0  0
   -7.4696  -17.4571   23.3388 C   0  0  0  0  0  0  0  0  0  0  0  0
   -6.1702  -17.3691   24.1507 C   0  0  0  0  0  0  0  0  0  0  0  0
   -4.9872  -18.0693   23.4741 C   0  0  0  0  0  0  0  0  0  0  0  0
   -4.7188  -19.4830   23.9983 C   0  0  0  0  0  0  0  0  0  0  0  0
   -3.5364  -19.5638   24.9676 C   0  0  0  0  0  0  0  0  0  0  0  0
   -3.3783  -20.9535   25.5963 C   0  0  0  0  0  0  0  0  0  0  0  0
   -2.1973  -21.0526   26.5656 C   0  0  0  0  0  0  0  0  0  0  0  0
   -2.1001  -22.4539   27.1800 C   0  0  0  0  0  0  0  0  0  0  0  0
   -0.8446  -22.6523   28.0399 C   0  0  0  0  0  0  0  0  0  0  0  0
   -0.7496  -24.0151   28.7375 C   0  0  0  0  0  0  0  0  0  0  0  0
   -0.0587  -24.0349   30.1007 C   0  0  0  0  0  0  0  0  0  0  0  0
   -0.6696  -25.0417   31.0770 C   0  0  0  0  0  0  0  0  0  0  0  0
    0.1608  -26.3125   31.1459 C   0  0  0  0  0  0  0  0  0  0  0  0
 25  1  1  0
 26  1  1  6
  2 29  1  0
  2 30  1  1
 32  2  1  0
 32  3  1  6
  3 33  1  0
  5  4  1  0
  4 28  1  6
  4 32  1  0
 26  5  1  0
  5 27  1  1
  7  6  1  0
  8  7  1  0
  9  8  1  0
 10  9  1  0
 11 10  1  0
 12 11  1  0
 13 12  1  0
 14 13  1  0
 15 14  1  0
 16 15  1  0
 17 16  1  0
 18 17  1  0
 19 18  1  0
 20 19  1  0
 20 21  1  1
 22 20  1  0
 22 23  1  1
 24 22  1  0
 24 25  1  6
 24 41  1  0
 26 29  1  0
 30 31  1  0
 33 34  1  0
 34 35  2  0
 34 40  1  0
 35 36  1  0
 36 37  2  0
 37 38  1  0
 37 39  1  0
 39 40  2  0
 41 42  1  0
 42 43  2  0
 42 44  1  0
 44 45  1  0
 45 46  1  0
 46 47  1  0
 47 48  1  0
 48 49  1  0
 49 50  1  0
 50 51  1  0
 51 52  1  0
 52 53  1  0
 53 54  1  0
 54 55  1  0
 55 56  1  0
 56 57  1  0
 57 58  1  0
 58 59  1  0
 59 60  1  0
 60 61  1  0
 61 62  1  0
 62 63  1  0
 63 64  1  0
 64 65  1  0
 65 66  1  0
 66 67  1  0
 67 68  1  0
M  END
$$$$
