
     RDKit          3D

 39 43  0  0  0  0  0  0  0  0999 V2000
    5.5641    0.4513  -11.6087 C   0  0  0  0  0  0  0  0  0  0  0  0
    4.2068    0.6055  -12.2443 C   0  0  2  0  0  0  0  0  0  0  0  0
    4.2240    0.3092  -13.7145 C   0  0  0  0  0  0  0  0  0  0  0  0
    3.4081    1.7499  -11.7719 C   0  0  0  0  0  0  0  0  0  0  0  0
    3.7503    3.0189  -12.2681 C   0  0  0  0  0  0  0  0  0  0  0  0
    3.0886    4.1759  -11.9257 C   0  0  0  0  0  0  0  0  0  0  0  0
    2.0342    4.0876  -11.0501 C   0  0  0  0  0  0  0  0  0  0  0  0
    1.6811    2.8628  -10.5526 C   0  0  0  0  0  0  0  0  0  0  0  0
    2.3553    1.7266  -10.9085 C   0  0  0  0  0  0  0  0  0  0  0  0
    1.9704    0.4633  -10.3722 N   0  0  0  0  0  0  0  0  0  0  0  0
    2.4998    0.1258   -9.1808 C   0  0  0  0  0  0  0  0  0  0  0  0
    3.3751    0.9793   -8.4907 C   0  0  0  0  0  0  0  0  0  0  0  0
    1.1186   -0.3127  -11.0566 C   0  0  0  0  0  0  0  0  0  0  0  0
    0.6297    0.0416  -12.1891 O   0  0  0  0  0  0  0  0  0  0  0  0
    0.7762   -1.4962  -10.5219 N   0  0  0  0  0  0  0  0  0  0  0  0
    1.2536   -1.9369   -9.3235 C   0  0  0  0  0  0  0  0  0  0  0  0
    0.9034   -3.2146   -8.8167 N   0  0  0  0  0  0  0  0  0  0  0  0
   -0.1807   -3.9855   -9.3880 C   0  0  0  0  0  0  0  0  0  0  0  0
   -0.1402   -5.4059   -8.8607 C   0  0  0  0  0  0  0  0  0  0  0  0
    1.6328   -3.7836   -7.7150 C   0  0  0  0  0  0  0  0  0  0  0  0
    0.6696   -4.4142   -6.7332 C   0  0  0  0  0  0  0  0  0  0  0  0
   -0.0636   -5.4377   -7.4264 N   0  0  0  0  0  0  0  0  0  0  0  0
   -0.7033   -6.4612   -6.6996 C   0  0  0  0  0  0  0  0  0  0  0  0
   -1.6004   -7.1402   -7.2652 O   0  0  0  0  0  0  0  0  0  0  0  0
   -0.3627   -6.7756   -5.2844 C   0  0  0  0  0  0  0  0  0  0  0  0
    0.4347   -8.0539   -5.2537 C   0  0  0  0  0  0  0  0  0  0  0  0
    2.1289   -1.0975   -8.6539 C   0  0  0  0  0  0  0  0  0  0  0  0
    2.6580   -1.4370   -7.4208 C   0  0  0  0  0  0  0  0  0  0  0  0
    3.5199   -0.5811   -6.7561 C   0  0  0  0  0  0  0  0  0  0  0  0
    4.1737   -1.0367   -5.1978 Cl  0  0  0  0  0  0  0  0  0  0  0  0
    3.8960    0.6356   -7.2695 C   0  0  0  0  0  0  0  0  0  0  0  0
    4.7905    1.5759   -6.6307 C   0  0  0  0  0  0  0  0  0  0  0  0
    4.3174    2.5586   -5.7833 C   0  0  0  0  0  0  0  0  0  0  0  0
    2.9695    2.5946   -5.5832 F   0  0  0  0  0  0  0  0  0  0  0  0
    5.1715    3.4493   -5.1794 C   0  0  0  0  0  0  0  0  0  0  0  0
    6.5153    3.3665   -5.4178 C   0  0  0  0  0  0  0  0  0  0  0  0
    7.0002    2.3856   -6.2651 C   0  0  0  0  0  0  0  0  0  0  0  0
    6.1394    1.4854   -6.8757 C   0  0  0  0  0  0  0  0  0  0  0  0
    6.6385    0.5155   -7.7161 O   0  0  0  0  0  0  0  0  0  0  0  0
  2  1  1  6
  2  3  1  0
  2  4  1  0
  4  5  2  0
  4  9  1  0
  5  6  1  0
  6  7  2  0
  7  8  1  0
  8  9  2  0
  9 10  1  0
 10 11  1  0
 10 13  1  0
 11 12  2  0
 11 27  1  0
 12 31  1  0
 13 14  2  0
 13 15  1  0
 15 16  2  0
 16 17  1  0
 16 27  1  0
 17 18  1  0
 17 20  1  0
 18 19  1  0
 19 22  1  0
 20 21  1  0
 21 22  1  0
 22 23  1  0
 23 24  2  0
 23 25  1  0
 25 26  1  0
 27 28  2  0
 28 29  1  0
 29 30  1  0
 29 31  2  0
 31 32  1  0
 32 33  2  0
 32 38  1  0
 33 34  1  0
 33 35  1  0
 35 36  2  0
 36 37  1  0
 37 38  2  0
 38 39  1  0
M  END
$$$$
