
     RDKit          3D

 39 43  0  0  0  0  0  0  0  0999 V2000
    6.5771   -1.1119  -11.6909 C   0  0  0  0  0  0  0  0  0  0  0  0
    5.1219   -1.3631  -11.9904 C   0  0  2  0  0  0  0  0  0  0  0  0
    4.9070   -2.6179  -12.7833 C   0  0  0  0  0  0  0  0  0  0  0  0
    4.3282   -0.1720  -12.3393 C   0  0  0  0  0  0  0  0  0  0  0  0
    4.8867    0.7207  -13.2692 C   0  0  0  0  0  0  0  0  0  0  0  0
    4.2585    1.8675  -13.6983 C   0  0  0  0  0  0  0  0  0  0  0  0
    3.0159    2.1575  -13.1905 C   0  0  0  0  0  0  0  0  0  0  0  0
    2.4501    1.3037  -12.2832 C   0  0  0  0  0  0  0  0  0  0  0  0
    3.0954    0.1694  -11.8720 C   0  0  0  0  0  0  0  0  0  0  0  0
    2.4862   -0.7012  -10.9220 N   0  0  0  0  0  0  0  0  0  0  0  0
    2.6847   -0.4111   -9.6220 C   0  0  0  0  0  0  0  0  0  0  0  0
    3.4402    0.7012   -9.2183 C   0  0  0  0  0  0  0  0  0  0  0  0
    1.7588   -1.7418  -11.3514 C   0  0  0  0  0  0  0  0  0  0  0  0
    1.5869   -1.9876  -12.5992 O   0  0  0  0  0  0  0  0  0  0  0  0
    1.1980   -2.5414  -10.4295 N   0  0  0  0  0  0  0  0  0  0  0  0
    1.3357   -2.3407   -9.0882 C   0  0  0  0  0  0  0  0  0  0  0  0
    0.7658   -3.2366   -8.1476 N   0  0  0  0  0  0  0  0  0  0  0  0
    1.4518   -3.5858   -6.9215 C   0  0  0  0  0  0  0  0  0  0  0  0
    0.5035   -4.3077   -5.9850 C   0  0  0  0  0  0  0  0  0  0  0  0
   -0.5270   -3.8189   -8.3907 C   0  0  0  0  0  0  0  0  0  0  0  0
   -0.5032   -5.2887   -8.0319 C   0  0  0  0  0  0  0  0  0  0  0  0
   -0.1606   -5.4000   -6.6405 N   0  0  0  0  0  0  0  0  0  0  0  0
   -0.4738   -6.5754   -5.9295 C   0  0  0  0  0  0  0  0  0  0  0  0
    0.1765   -6.8472   -4.8861 O   0  0  0  0  0  0  0  0  0  0  0  0
   -1.5455   -7.5148   -6.3617 C   0  0  0  0  0  0  0  0  0  0  0  0
   -2.3737   -7.8863   -5.1589 C   0  0  0  0  0  0  0  0  0  0  0  0
    2.0947   -1.2504   -8.6952 C   0  0  0  0  0  0  0  0  0  0  0  0
    2.2828   -0.9423   -7.3590 C   0  0  0  0  0  0  0  0  0  0  0  0
    3.0315    0.1596   -6.9813 C   0  0  0  0  0  0  0  0  0  0  0  0
    3.2525    0.5250   -5.2839 Cl  0  0  0  0  0  0  0  0  0  0  0  0
    3.6227    0.9997   -7.8923 C   0  0  0  0  0  0  0  0  0  0  0  0
    4.4165    2.1647   -7.5678 C   0  0  0  0  0  0  0  0  0  0  0  0
    5.6356    2.0505   -6.9288 C   0  0  0  0  0  0  0  0  0  0  0  0
    6.0476    0.7880   -6.6215 F   0  0  0  0  0  0  0  0  0  0  0  0
    6.3854    3.1605   -6.6227 C   0  0  0  0  0  0  0  0  0  0  0  0
    5.9214    4.4032   -6.9543 C   0  0  0  0  0  0  0  0  0  0  0  0
    4.7012    4.5290   -7.5949 C   0  0  0  0  0  0  0  0  0  0  0  0
    3.9428    3.4095   -7.9047 C   0  0  0  0  0  0  0  0  0  0  0  0
    2.7309    3.5526   -8.5423 O   0  0  0  0  0  0  0  0  0  0  0  0
  2  1  1  6
  2  3  1  0
  2  4  1  0
  4  5  2  0
  4  9  1  0
  5  6  1  0
  6  7  2  0
  7  8  1  0
  8  9  2  0
  9 10  1  0
 10 11  1  0
 10 13  1  0
 11 12  2  0
 11 27  1  0
 12 31  1  0
 13 14  2  0
 13 15  1  0
 15 16  2  0
 16 17  1  0
 16 27  1  0
 17 18  1  0
 17 20  1  0
 18 19  1  0
 19 22  1  0
 20 21  1  0
 21 22  1  0
 22 23  1  0
 23 24  2  0
 23 25  1  0
 25 26  1  0
 27 28  2  0
 28 29  1  0
 29 30  1  0
 29 31  2  0
 31 32  1  0
 32 33  2  0
 32 38  1  0
 33 34  1  0
 33 35  1  0
 35 36  2  0
 36 37  1  0
 37 38  2  0
 38 39  1  0
M  END
$$$$
