
     RDKit          3D

 39 43  0  0  0  0  0  0  0  0999 V2000
    6.3745   -0.7847  -10.4065 C   0  0  0  0  0  0  0  0  0  0  0  0
    4.9391   -0.8847  -10.8511 C   0  0  2  0  0  0  0  0  0  0  0  0
    4.8295   -1.8266  -12.0326 C   0  0  0  0  0  0  0  0  0  0  0  0
    4.3386    0.4403  -11.1233 C   0  0  0  0  0  0  0  0  0  0  0  0
    5.0713    1.4195  -11.7916 C   0  0  0  0  0  0  0  0  0  0  0  0
    4.5239    2.6597  -12.0487 C   0  0  0  0  0  0  0  0  0  0  0  0
    3.2325    2.8802  -11.6172 C   0  0  0  0  0  0  0  0  0  0  0  0
    2.4960    1.9109  -10.9511 C   0  0  0  0  0  0  0  0  0  0  0  0
    3.0476    0.6683  -10.6950 C   0  0  0  0  0  0  0  0  0  0  0  0
    2.3434   -0.3546  -10.0263 N   0  0  0  0  0  0  0  0  0  0  0  0
    2.3431   -0.4096   -8.6968 C   0  0  0  0  0  0  0  0  0  0  0  0
    3.0422    0.5340   -8.0073 C   0  0  0  0  0  0  0  0  0  0  0  0
    1.6613   -1.2866  -10.7047 C   0  0  0  0  0  0  0  0  0  0  0  0
    1.6547   -1.2444  -11.9736 O   0  0  0  0  0  0  0  0  0  0  0  0
    0.9786   -2.2713  -10.1093 N   0  0  0  0  0  0  0  0  0  0  0  0
    0.9731   -2.3343   -8.7400 C   0  0  0  0  0  0  0  0  0  0  0  0
    0.2336   -3.3703   -8.0918 N   0  0  0  0  0  0  0  0  0  0  0  0
   -1.0921   -3.6709   -8.5963 C   0  0  0  0  0  0  0  0  0  0  0  0
   -1.1350   -5.1468   -9.0525 C   0  0  0  0  0  0  0  0  0  0  0  0
    0.7356   -4.1386   -6.9749 C   0  0  0  0  0  0  0  0  0  0  0  0
   -0.2242   -5.2749   -6.7202 C   0  0  0  0  0  0  0  0  0  0  0  0
   -0.6973   -5.9218   -7.9182 N   0  0  0  0  0  0  0  0  0  0  0  0
   -0.7278   -7.3465   -7.9568 C   0  0  0  0  0  0  0  0  0  0  0  0
    0.0342   -8.0449   -7.2191 O   0  0  0  0  0  0  0  0  0  0  0  0
   -1.6644   -8.0530   -8.8726 C   0  0  0  0  0  0  0  0  0  0  0  0
   -1.3404   -7.7296  -10.3111 C   0  0  0  0  0  0  0  0  0  0  0  0
    1.6513   -1.4109   -8.0115 C   0  0  0  0  0  0  0  0  0  0  0  0
    1.6652   -1.4599   -6.6306 C   0  0  0  0  0  0  0  0  0  0  0  0
    2.3927   -0.4759   -5.9490 C   0  0  0  0  0  0  0  0  0  0  0  0
    2.4495   -0.4832   -4.2000 Cl  0  0  0  0  0  0  0  0  0  0  0  0
    3.0803    0.5183   -6.6077 C   0  0  0  0  0  0  0  0  0  0  0  0
    3.8500    1.5550   -5.9648 C   0  0  0  0  0  0  0  0  0  0  0  0
    4.9722    1.1982   -5.2487 C   0  0  0  0  0  0  0  0  0  0  0  0
    5.3639   -0.1150   -5.1404 F   0  0  0  0  0  0  0  0  0  0  0  0
    5.7581    2.1438   -4.6054 C   0  0  0  0  0  0  0  0  0  0  0  0
    5.4133    3.4772   -4.6803 C   0  0  0  0  0  0  0  0  0  0  0  0
    4.2825    3.8270   -5.4029 C   0  0  0  0  0  0  0  0  0  0  0  0
    3.4934    2.8833   -6.0481 C   0  0  0  0  0  0  0  0  0  0  0  0
    2.3910    3.3068   -6.7430 O   0  0  0  0  0  0  0  0  0  0  0  0
  1  2  1  6
  3  2  1  6
  2  4  1  6
  4  5  2  0
  4  9  1  0
  5  6  1  0
  6  7  2  0
  7  8  1  0
  8  9  2  0
  9 10  1  0
 10 11  1  0
 10 13  1  0
 11 12  2  0
 11 27  1  0
 12 31  1  0
 13 14  2  0
 13 15  1  0
 15 16  2  0
 16 17  1  0
 16 27  1  0
 18 17  1  1
 20 17  1  1
 18 19  1  0
 19 22  1  6
 20 21  1  0
 21 22  1  6
 22 23  1  0
 23 24  2  0
 25 23  1  1
 26 25  1  6
 27 28  2  0
 28 29  1  0
 29 30  1  0
 29 31  2  0
 31 32  1  0
 32 33  2  0
 32 38  1  0
 33 34  1  0
 33 35  1  0
 35 36  2  0
 36 37  1  0
 37 38  2  0
 38 39  1  0
M  END
$$$$
