
     RDKit          3D

 39 43  0  0  0  0  0  0  0  0999 V2000
    5.9346   -1.1424  -11.4112 C   0  0  0  0  0  0  0  0  0  0  0  0
    5.1360   -0.1582  -10.5962 C   0  0  2  0  0  0  0  0  0  0  0  0
    4.5995    0.9715  -11.4242 C   0  0  0  0  0  0  0  0  0  0  0  0
    5.6764    0.1500   -9.2607 C   0  0  0  0  0  0  0  0  0  0  0  0
    6.7620    1.0394   -9.1980 C   0  0  0  0  0  0  0  0  0  0  0  0
    7.3630    1.4282   -8.0226 C   0  0  0  0  0  0  0  0  0  0  0  0
    6.8758    0.9196   -6.8436 C   0  0  0  0  0  0  0  0  0  0  0  0
    5.8188    0.0513   -6.8778 C   0  0  0  0  0  0  0  0  0  0  0  0
    5.2384   -0.3201   -8.0600 C   0  0  0  0  0  0  0  0  0  0  0  0
    4.1414   -1.2300   -8.0687 N   0  0  0  0  0  0  0  0  0  0  0  0
    2.9102   -0.6934   -7.9698 C   0  0  0  0  0  0  0  0  0  0  0  0
    2.7118    0.6934   -7.8784 C   0  0  0  0  0  0  0  0  0  0  0  0
    4.3754   -2.5454   -8.1749 C   0  0  0  0  0  0  0  0  0  0  0  0
    5.5625   -3.0233   -8.2709 O   0  0  0  0  0  0  0  0  0  0  0  0
    3.3189   -3.3746   -8.1810 N   0  0  0  0  0  0  0  0  0  0  0  0
    2.0308   -2.9388   -8.0850 C   0  0  0  0  0  0  0  0  0  0  0  0
    0.9458   -3.8517   -8.0476 N   0  0  0  0  0  0  0  0  0  0  0  0
   -0.2233   -3.6065   -7.2296 C   0  0  0  0  0  0  0  0  0  0  0  0
   -1.3297   -4.5720   -7.6048 C   0  0  0  0  0  0  0  0  0  0  0  0
    0.9800   -5.0528   -8.8386 C   0  0  0  0  0  0  0  0  0  0  0  0
    0.4795   -6.2216   -8.0182 C   0  0  0  0  0  0  0  0  0  0  0  0
   -0.8679   -5.9324   -7.6101 N   0  0  0  0  0  0  0  0  0  0  0  0
   -1.7250   -6.9790   -7.2164 C   0  0  0  0  0  0  0  0  0  0  0  0
   -2.8667   -6.6948   -6.7676 O   0  0  0  0  0  0  0  0  0  0  0  0
   -1.3365   -8.4137   -7.3083 C   0  0  0  0  0  0  0  0  0  0  0  0
   -2.5103   -9.1974   -7.8362 C   0  0  0  0  0  0  0  0  0  0  0  0
    1.8414   -1.5705   -7.9797 C   0  0  0  0  0  0  0  0  0  0  0  0
    0.5748   -1.0185   -7.8969 C   0  0  0  0  0  0  0  0  0  0  0  0
    0.4002    0.3522   -7.8074 C   0  0  0  0  0  0  0  0  0  0  0  0
   -1.2134    1.0222   -7.7040 Cl  0  0  0  0  0  0  0  0  0  0  0  0
    1.4536    1.2328   -7.7958 C   0  0  0  0  0  0  0  0  0  0  0  0
    1.3433    2.6722   -7.7040 C   0  0  0  0  0  0  0  0  0  0  0  0
    1.4533    3.4759   -8.8219 C   0  0  0  0  0  0  0  0  0  0  0  0
    1.6708    2.8430  -10.0094 F   0  0  0  0  0  0  0  0  0  0  0  0
    1.3480    4.8427   -8.7289 C   0  0  0  0  0  0  0  0  0  0  0  0
    1.1305    5.4235   -7.5104 C   0  0  0  0  0  0  0  0  0  0  0  0
    1.0186    4.6276   -6.3838 C   0  0  0  0  0  0  0  0  0  0  0  0
    1.1246    3.2475   -6.4757 C   0  0  0  0  0  0  0  0  0  0  0  0
    1.0109    2.4703   -5.3448 O   0  0  0  0  0  0  0  0  0  0  0  0
  2  1  1  6
  2  3  1  0
  2  4  1  0
  4  5  2  0
  4  9  1  0
  5  6  1  0
  6  7  2  0
  7  8  1  0
  8  9  2  0
  9 10  1  0
 10 11  1  0
 10 13  1  0
 11 12  2  0
 11 27  1  0
 12 31  1  0
 13 14  2  0
 13 15  1  0
 15 16  2  0
 16 17  1  0
 16 27  1  0
 17 18  1  0
 17 20  1  0
 18 19  1  0
 19 22  1  0
 20 21  1  0
 21 22  1  0
 22 23  1  0
 23 24  2  0
 23 25  1  0
 25 26  1  0
 27 28  2  0
 28 29  1  0
 29 30  1  0
 29 31  2  0
 31 32  1  0
 32 33  2  0
 32 38  1  0
 33 34  1  0
 33 35  1  0
 35 36  2  0
 36 37  1  0
 37 38  2  0
 38 39  1  0
M  END
$$$$
