
     RDKit          3D

 39 43  0  0  0  0  0  0  0  0999 V2000
   -1.1419    1.8184   -5.2166 C   0  0  0  0  0  0  0  0  0  0  0  0
    0.2127    1.9029   -5.8708 C   0  0  2  0  0  0  0  0  0  0  0  0
    1.2896    2.3137   -4.9110 C   0  0  0  0  0  0  0  0  0  0  0  0
    0.2305    2.4768   -7.2276 C   0  0  0  0  0  0  0  0  0  0  0  0
    0.1053    3.8718   -7.3353 C   0  0  0  0  0  0  0  0  0  0  0  0
    0.1158    4.5486   -8.5335 C   0  0  0  0  0  0  0  0  0  0  0  0
    0.2567    3.8217   -9.6901 C   0  0  0  0  0  0  0  0  0  0  0  0
    0.3806    2.4612   -9.6120 C   0  0  0  0  0  0  0  0  0  0  0  0
    0.3669    1.8114   -8.4080 C   0  0  0  0  0  0  0  0  0  0  0  0
    0.4929    0.3926   -8.3542 N   0  0  0  0  0  0  0  0  0  0  0  0
    1.7434   -0.1004   -8.2721 C   0  0  0  0  0  0  0  0  0  0  0  0
    2.8686    0.7378   -8.2256 C   0  0  0  0  0  0  0  0  0  0  0  0
   -0.6090   -0.3697   -8.3840 C   0  0  0  0  0  0  0  0  0  0  0  0
   -1.7870    0.1337   -8.4593 O   0  0  0  0  0  0  0  0  0  0  0  0
   -0.4542   -1.7028   -8.3306 N   0  0  0  0  0  0  0  0  0  0  0  0
    0.7649   -2.3073   -8.2477 C   0  0  0  0  0  0  0  0  0  0  0  0
    0.8867   -3.7205   -8.2412 N   0  0  0  0  0  0  0  0  0  0  0  0
   -0.2210   -4.5750   -7.8685 C   0  0  0  0  0  0  0  0  0  0  0  0
    0.0891   -6.0132   -8.2326 C   0  0  0  0  0  0  0  0  0  0  0  0
    2.1271   -4.3440   -8.6179 C   0  0  0  0  0  0  0  0  0  0  0  0
    2.4446   -5.4732   -7.6621 C   0  0  0  0  0  0  0  0  0  0  0  0
    1.3693   -6.4246   -7.7269 N   0  0  0  0  0  0  0  0  0  0  0  0
    1.5737   -7.7496   -7.2936 C   0  0  0  0  0  0  0  0  0  0  0  0
    2.7467   -8.1351   -7.0462 O   0  0  0  0  0  0  0  0  0  0  0  0
    0.4568   -8.7184   -7.1154 C   0  0  0  0  0  0  0  0  0  0  0  0
    0.8079   -9.9953   -7.8343 C   0  0  0  0  0  0  0  0  0  0  0  0
    1.8726   -1.4759   -8.2175 C   0  0  0  0  0  0  0  0  0  0  0  0
    3.1564   -1.9828   -8.1143 C   0  0  0  0  0  0  0  0  0  0  0  0
    4.2533   -1.1390   -8.0698 C   0  0  0  0  0  0  0  0  0  0  0  0
    5.8653   -1.8083   -7.9390 Cl  0  0  0  0  0  0  0  0  0  0  0  0
    4.1376    0.2281   -8.1240 C   0  0  0  0  0  0  0  0  0  0  0  0
    5.2383    1.1658   -8.0833 C   0  0  0  0  0  0  0  0  0  0  0  0
    5.5604    1.8487   -6.9267 C   0  0  0  0  0  0  0  0  0  0  0  0
    4.7891    1.5929   -5.8322 F   0  0  0  0  0  0  0  0  0  0  0  0
    6.6067    2.7385   -6.8936 C   0  0  0  0  0  0  0  0  0  0  0  0
    7.3460    2.9563   -8.0230 C   0  0  0  0  0  0  0  0  0  0  0  0
    7.0320    2.2774   -9.1872 C   0  0  0  0  0  0  0  0  0  0  0  0
    5.9760    1.3786   -9.2226 C   0  0  0  0  0  0  0  0  0  0  0  0
    5.6770    0.7115  -10.3894 O   0  0  0  0  0  0  0  0  0  0  0  0
  2  1  1  1
  2  3  1  0
  2  4  1  0
  4  5  2  0
  4  9  1  0
  5  6  1  0
  6  7  2  0
  7  8  1  0
  8  9  2  0
  9 10  1  0
 10 11  1  0
 10 13  1  0
 11 12  2  0
 11 27  1  0
 12 31  1  0
 13 14  2  0
 13 15  1  0
 15 16  2  0
 16 17  1  0
 16 27  1  0
 17 18  1  0
 17 20  1  0
 18 19  1  0
 19 22  1  0
 20 21  1  0
 21 22  1  0
 22 23  1  0
 23 24  2  0
 23 25  1  0
 25 26  1  0
 27 28  2  0
 28 29  1  0
 29 30  1  0
 29 31  2  0
 31 32  1  0
 32 33  2  0
 32 38  1  0
 33 34  1  0
 33 35  1  0
 35 36  2  0
 36 37  1  0
 37 38  2  0
 38 39  1  0
M  END
$$$$
