
     RDKit          3D

 39 43  0  0  0  0  0  0  0  0999 V2000
    1.5207    2.6419   -6.6363 C   0  0  0  0  0  0  0  0  0  0  0  0
    0.5601    2.9290   -7.7611 C   0  0  2  0  0  0  0  0  0  0  0  0
   -0.6769    2.0837   -7.6900 C   0  0  0  0  0  0  0  0  0  0  0  0
    1.1742    3.1585   -9.0805 C   0  0  0  0  0  0  0  0  0  0  0  0
    1.3562    4.4931   -9.4795 C   0  0  0  0  0  0  0  0  0  0  0  0
    1.9251    4.8606  -10.6775 C   0  0  0  0  0  0  0  0  0  0  0  0
    2.3391    3.8687  -11.5324 C   0  0  0  0  0  0  0  0  0  0  0  0
    2.1730    2.5606  -11.1669 C   0  0  0  0  0  0  0  0  0  0  0  0
    1.6041    2.2209   -9.9698 C   0  0  0  0  0  0  0  0  0  0  0  0
    1.4380    0.8506   -9.6148 N   0  0  0  0  0  0  0  0  0  0  0  0
    2.4420    0.2796   -8.9222 C   0  0  0  0  0  0  0  0  0  0  0  0
    3.5896    0.9988   -8.5527 C   0  0  0  0  0  0  0  0  0  0  0  0
    0.3186    0.2066   -9.9732 C   0  0  0  0  0  0  0  0  0  0  0  0
   -0.6210    0.7826  -10.6307 O   0  0  0  0  0  0  0  0  0  0  0  0
    0.1941   -1.0837   -9.6217 N   0  0  0  0  0  0  0  0  0  0  0  0
    1.1492   -1.7593   -8.9219 C   0  0  0  0  0  0  0  0  0  0  0  0
    0.9990   -3.1352   -8.6116 N   0  0  0  0  0  0  0  0  0  0  0  0
   -0.2262   -3.8488   -8.9040 C   0  0  0  0  0  0  0  0  0  0  0  0
   -0.0070   -5.3403   -8.7473 C   0  0  0  0  0  0  0  0  0  0  0  0
    2.0781   -3.8634   -7.9993 C   0  0  0  0  0  0  0  0  0  0  0  0
    1.5389   -4.7483   -6.8966 C   0  0  0  0  0  0  0  0  0  0  0  0
    0.5927   -5.6585   -7.4812 N   0  0  0  0  0  0  0  0  0  0  0  0
    0.2568   -6.8519   -6.8118 C   0  0  0  0  0  0  0  0  0  0  0  0
   -0.8251   -7.4280   -7.1004 O   0  0  0  0  0  0  0  0  0  0  0  0
    1.1303   -7.4637   -5.7723 C   0  0  0  0  0  0  0  0  0  0  0  0
    0.9863   -8.9619   -5.8436 C   0  0  0  0  0  0  0  0  0  0  0  0
    2.2863   -1.0490   -8.5729 C   0  0  0  0  0  0  0  0  0  0  0  0
    3.3095   -1.6314   -7.8450 C   0  0  0  0  0  0  0  0  0  0  0  0
    4.4335   -0.9048   -7.4903 C   0  0  0  0  0  0  0  0  0  0  0  0
    5.7117   -1.6674   -6.5694 Cl  0  0  0  0  0  0  0  0  0  0  0  0
    4.5996    0.4147   -7.8321 C   0  0  0  0  0  0  0  0  0  0  0  0
    5.7455    1.2309   -7.4958 C   0  0  0  0  0  0  0  0  0  0  0  0
    6.6801    1.5879   -8.4481 C   0  0  0  0  0  0  0  0  0  0  0  0
    6.4657    1.1314   -9.7146 F   0  0  0  0  0  0  0  0  0  0  0  0
    7.7668    2.3632   -8.1232 C   0  0  0  0  0  0  0  0  0  0  0  0
    7.9316    2.7921   -6.8355 C   0  0  0  0  0  0  0  0  0  0  0  0
    7.0011    2.4405   -5.8733 C   0  0  0  0  0  0  0  0  0  0  0  0
    5.9033    1.6577   -6.1995 C   0  0  0  0  0  0  0  0  0  0  0  0
    4.9869    1.3169   -5.2299 O   0  0  0  0  0  0  0  0  0  0  0  0
  2  1  1  1
  2  3  1  0
  2  4  1  0
  4  5  2  0
  4  9  1  0
  5  6  1  0
  6  7  2  0
  7  8  1  0
  8  9  2  0
  9 10  1  0
 10 11  1  0
 10 13  1  0
 11 12  2  0
 11 27  1  0
 12 31  1  0
 13 14  2  0
 13 15  1  0
 15 16  2  0
 16 17  1  0
 16 27  1  0
 17 18  1  0
 17 20  1  0
 18 19  1  0
 19 22  1  0
 20 21  1  0
 21 22  1  0
 22 23  1  0
 23 24  2  0
 23 25  1  0
 25 26  1  0
 27 28  2  0
 28 29  1  0
 29 30  1  0
 29 31  2  0
 31 32  1  0
 32 33  2  0
 32 38  1  0
 33 34  1  0
 33 35  1  0
 35 36  2  0
 36 37  1  0
 37 38  2  0
 38 39  1  0
M  END
$$$$
