
     RDKit          3D

 39 43  0  0  0  0  0  0  0  0999 V2000
   -0.2882    2.5900  -10.6957 C   0  0  0  0  0  0  0  0  0  0  0  0
    1.1340    2.7931  -10.2413 C   0  0  2  0  0  0  0  0  0  0  0  0
    1.3277    4.0967   -9.5253 C   0  0  0  0  0  0  0  0  0  0  0  0
    2.1743    2.3552  -11.1882 C   0  0  0  0  0  0  0  0  0  0  0  0
    2.6948    3.3242  -12.0620 C   0  0  0  0  0  0  0  0  0  0  0  0
    3.6762    3.0653  -12.9913 C   0  0  0  0  0  0  0  0  0  0  0  0
    4.1765    1.7888  -13.0706 C   0  0  0  0  0  0  0  0  0  0  0  0
    3.6861    0.8266  -12.2303 C   0  0  0  0  0  0  0  0  0  0  0  0
    2.7095    1.1093  -11.3146 C   0  0  0  0  0  0  0  0  0  0  0  0
    2.2123    0.0878  -10.4539 N   0  0  0  0  0  0  0  0  0  0  0  0
    2.7543    0.0174   -9.2232 C   0  0  0  0  0  0  0  0  0  0  0  0
    3.7486    0.9134   -8.7994 C   0  0  0  0  0  0  0  0  0  0  0  0
    1.2502   -0.7354  -10.8933 C   0  0  0  0  0  0  0  0  0  0  0  0
    0.7529   -0.6382  -12.0724 O   0  0  0  0  0  0  0  0  0  0  0  0
    0.8039   -1.6861  -10.0562 N   0  0  0  0  0  0  0  0  0  0  0  0
    1.2833   -1.8472   -8.7903 C   0  0  0  0  0  0  0  0  0  0  0  0
    0.8175   -2.8945   -7.9546 N   0  0  0  0  0  0  0  0  0  0  0  0
    1.5674   -3.3293   -6.7951 C   0  0  0  0  0  0  0  0  0  0  0  0
    0.7105   -4.2359   -5.9342 C   0  0  0  0  0  0  0  0  0  0  0  0
   -0.4306   -3.5503   -8.2399 C   0  0  0  0  0  0  0  0  0  0  0  0
   -0.2764   -5.0453   -8.0641 C   0  0  0  0  0  0  0  0  0  0  0  0
    0.1172   -5.2937   -6.7044 N   0  0  0  0  0  0  0  0  0  0  0  0
   -0.0773   -6.5682   -6.1361 C   0  0  0  0  0  0  0  0  0  0  0  0
   -0.6263   -7.4658   -6.8278 O   0  0  0  0  0  0  0  0  0  0  0  0
    0.3401   -6.9006   -4.7458 C   0  0  0  0  0  0  0  0  0  0  0  0
    1.2344   -8.1126   -4.7885 C   0  0  0  0  0  0  0  0  0  0  0  0
    2.2750   -0.9700   -8.3825 C   0  0  0  0  0  0  0  0  0  0  0  0
    2.8184   -1.0312   -7.1110 C   0  0  0  0  0  0  0  0  0  0  0  0
    3.7985   -0.1380   -6.7122 C   0  0  0  0  0  0  0  0  0  0  0  0
    4.4675   -0.2389   -5.0980 Cl  0  0  0  0  0  0  0  0  0  0  0  0
    4.2829    0.8461   -7.5382 C   0  0  0  0  0  0  0  0  0  0  0  0
    5.3034    1.8093   -7.1874 C   0  0  0  0  0  0  0  0  0  0  0  0
    6.5634    1.7615   -7.7511 C   0  0  0  0  0  0  0  0  0  0  0  0
    6.7920    0.7628   -8.6504 F   0  0  0  0  0  0  0  0  0  0  0  0
    7.5292    2.6788   -7.4141 C   0  0  0  0  0  0  0  0  0  0  0  0
    7.2437    3.6590   -6.5047 C   0  0  0  0  0  0  0  0  0  0  0  0
    5.9845    3.7163   -5.9337 C   0  0  0  0  0  0  0  0  0  0  0  0
    5.0081    2.7910   -6.2727 C   0  0  0  0  0  0  0  0  0  0  0  0
    3.7602    2.8623   -5.6951 O   0  0  0  0  0  0  0  0  0  0  0  0
  2  1  1  6
  2  3  1  0
  2  4  1  0
  4  5  2  0
  4  9  1  0
  5  6  1  0
  6  7  2  0
  7  8  1  0
  8  9  2  0
  9 10  1  0
 10 11  1  0
 10 13  1  0
 11 12  2  0
 11 27  1  0
 12 31  1  0
 13 14  2  0
 13 15  1  0
 15 16  2  0
 16 17  1  0
 16 27  1  0
 17 18  1  0
 17 20  1  0
 18 19  1  0
 19 22  1  0
 20 21  1  0
 21 22  1  0
 22 23  1  0
 23 24  2  0
 23 25  1  0
 25 26  1  0
 27 28  2  0
 28 29  1  0
 29 30  1  0
 29 31  2  0
 31 32  1  0
 32 33  2  0
 32 38  1  0
 33 34  1  0
 33 35  1  0
 35 36  2  0
 36 37  1  0
 37 38  2  0
 38 39  1  0
M  END
$$$$
