
     RDKit          3D

 39 43  0  0  0  0  0  0  0  0999 V2000
    4.4805    1.6610  -12.3161 C   0  0  0  0  0  0  0  0  0  0  0  0
    2.9759    1.6405  -12.2367 C   0  0  2  0  0  0  0  0  0  0  0  0
    2.3352    1.3332  -13.5576 C   0  0  0  0  0  0  0  0  0  0  0  0
    2.3681    2.6828  -11.3914 C   0  0  0  0  0  0  0  0  0  0  0  0
    2.5403    4.0172  -11.7955 C   0  0  0  0  0  0  0  0  0  0  0  0
    2.0219    5.0941  -11.1133 C   0  0  0  0  0  0  0  0  0  0  0  0
    1.2948    4.8532   -9.9734 C   0  0  0  0  0  0  0  0  0  0  0  0
    1.1126    3.5621   -9.5587 C   0  0  0  0  0  0  0  0  0  0  0  0
    1.6388    2.5081  -10.2546 C   0  0  0  0  0  0  0  0  0  0  0  0
    1.4386    1.1726   -9.7987 N   0  0  0  0  0  0  0  0  0  0  0  0
    2.3304    0.6976   -8.9084 C   0  0  0  0  0  0  0  0  0  0  0  0
    3.3966    1.4807   -8.4384 C   0  0  0  0  0  0  0  0  0  0  0  0
    0.3974    0.4663  -10.2607 C   0  0  0  0  0  0  0  0  0  0  0  0
   -0.4364    0.9513  -11.1071 O   0  0  0  0  0  0  0  0  0  0  0  0
    0.2377   -0.7886   -9.8095 N   0  0  0  0  0  0  0  0  0  0  0  0
    1.0817   -1.3684   -8.9095 C   0  0  0  0  0  0  0  0  0  0  0  0
    0.9041   -2.7132   -8.4946 N   0  0  0  0  0  0  0  0  0  0  0  0
   -0.3970   -3.3477   -8.5169 C   0  0  0  0  0  0  0  0  0  0  0  0
   -0.2480   -4.8421   -8.3125 C   0  0  0  0  0  0  0  0  0  0  0  0
    2.0290   -3.4887   -8.0446 C   0  0  0  0  0  0  0  0  0  0  0  0
    1.6475   -4.2779   -6.8112 C   0  0  0  0  0  0  0  0  0  0  0  0
    0.5536   -5.1428   -7.1588 N   0  0  0  0  0  0  0  0  0  0  0  0
    0.2718   -6.2749   -6.3688 C   0  0  0  0  0  0  0  0  0  0  0  0
    1.0657   -6.5827   -5.4411 O   0  0  0  0  0  0  0  0  0  0  0  0
   -0.9299   -7.1272   -6.5854 C   0  0  0  0  0  0  0  0  0  0  0  0
   -1.8788   -6.9232   -5.4327 C   0  0  0  0  0  0  0  0  0  0  0  0
    2.1407   -0.5965   -8.4605 C   0  0  0  0  0  0  0  0  0  0  0  0
    3.0462   -1.0790   -7.5315 C   0  0  0  0  0  0  0  0  0  0  0  0
    4.0913   -0.2906   -7.0803 C   0  0  0  0  0  0  0  0  0  0  0  0
    5.2213   -0.9271   -5.9049 Cl  0  0  0  0  0  0  0  0  0  0  0  0
    4.2903    0.9954   -7.5183 C   0  0  0  0  0  0  0  0  0  0  0  0
    5.3586    1.8719   -7.0907 C   0  0  0  0  0  0  0  0  0  0  0  0
    5.1173    2.9513   -6.2634 C   0  0  0  0  0  0  0  0  0  0  0  0
    3.8253    3.1451   -5.8745 F   0  0  0  0  0  0  0  0  0  0  0  0
    6.1357    3.7808   -5.8604 C   0  0  0  0  0  0  0  0  0  0  0  0
    7.4134    3.5385   -6.2829 C   0  0  0  0  0  0  0  0  0  0  0  0
    7.6664    2.4597   -7.1118 C   0  0  0  0  0  0  0  0  0  0  0  0
    6.6395    1.6211   -7.5197 C   0  0  0  0  0  0  0  0  0  0  0  0
    6.9087    0.5521   -8.3447 O   0  0  0  0  0  0  0  0  0  0  0  0
  2  1  1  6
  2  3  1  0
  2  4  1  0
  4  5  2  0
  4  9  1  0
  5  6  1  0
  6  7  2  0
  7  8  1  0
  8  9  2  0
  9 10  1  0
 10 11  1  0
 10 13  1  0
 11 12  2  0
 11 27  1  0
 12 31  1  0
 13 14  2  0
 13 15  1  0
 15 16  2  0
 16 17  1  0
 16 27  1  0
 17 18  1  0
 17 20  1  0
 18 19  1  0
 19 22  1  0
 20 21  1  0
 21 22  1  0
 22 23  1  0
 23 24  2  0
 23 25  1  0
 25 26  1  0
 27 28  2  0
 28 29  1  0
 29 30  1  0
 29 31  2  0
 31 32  1  0
 32 33  2  0
 32 38  1  0
 33 34  1  0
 33 35  1  0
 35 36  2  0
 36 37  1  0
 37 38  2  0
 38 39  1  0
M  END
$$$$
