
     RDKit          3D

 39 43  0  0  0  0  0  0  0  0999 V2000
    1.0073    0.6449  -13.6485 C   0  0  0  0  0  0  0  0  0  0  0  0
    1.9046    1.1553  -12.5519 C   0  0  2  0  0  0  0  0  0  0  0  0
    1.4035    2.4969  -12.0578 C   0  0  0  0  0  0  0  0  0  0  0  0
    3.3270    1.1950  -12.9588 C   0  0  0  0  0  0  0  0  0  0  0  0
    3.7547    2.0979  -13.9303 C   0  0  0  0  0  0  0  0  0  0  0  0
    5.0774    2.1428  -14.3204 C   0  0  0  0  0  0  0  0  0  0  0  0
    5.9447    1.2611  -13.7097 C   0  0  0  0  0  0  0  0  0  0  0  0
    5.5273    0.3588  -12.7415 C   0  0  0  0  0  0  0  0  0  0  0  0
    4.2004    0.3165  -12.3524 C   0  0  0  0  0  0  0  0  0  0  0  0
    3.7225   -0.5766  -11.3709 N   0  0  0  0  0  0  0  0  0  0  0  0
    3.8008   -0.2595  -10.0809 C   0  0  0  0  0  0  0  0  0  0  0  0
    4.3580    0.9348   -9.7380 C   0  0  0  0  0  0  0  0  0  0  0  0
    3.1805   -1.7542  -11.7078 C   0  0  0  0  0  0  0  0  0  0  0  0
    3.1009   -2.0676  -12.9356 O   0  0  0  0  0  0  0  0  0  0  0  0
    2.7132   -2.6281  -10.8088 N   0  0  0  0  0  0  0  0  0  0  0  0
    2.7898   -2.3085   -9.4781 C   0  0  0  0  0  0  0  0  0  0  0  0
    2.2785   -3.2252   -8.5093 N   0  0  0  0  0  0  0  0  0  0  0  0
    2.2726   -2.8070   -7.1211 C   0  0  0  0  0  0  0  0  0  0  0  0
    0.8190   -2.8218   -6.5965 C   0  0  0  0  0  0  0  0  0  0  0  0
    1.7591   -4.5340   -8.8363 C   0  0  0  0  0  0  0  0  0  0  0  0
    1.1094   -5.1016   -7.5981 C   0  0  0  0  0  0  0  0  0  0  0  0
    0.3188   -4.1478   -6.8616 N   0  0  0  0  0  0  0  0  0  0  0  0
   -0.9686   -4.5448   -6.3959 C   0  0  0  0  0  0  0  0  0  0  0  0
   -1.7069   -3.7509   -5.7347 O   0  0  0  0  0  0  0  0  0  0  0  0
   -1.4802   -5.9136   -6.6783 C   0  0  0  0  0  0  0  0  0  0  0  0
   -2.7885   -5.8438   -7.4281 C   0  0  0  0  0  0  0  0  0  0  0  0
    3.3321   -1.1257   -9.0904 C   0  0  0  0  0  0  0  0  0  0  0  0
    3.4259   -0.7864   -7.7541 C   0  0  0  0  0  0  0  0  0  0  0  0
    4.0036    0.4484   -7.4323 C   0  0  0  0  0  0  0  0  0  0  0  0
    4.1514    0.9360   -5.7582 Cl  0  0  0  0  0  0  0  0  0  0  0  0
    4.4707    1.3145   -8.3950 C   0  0  0  0  0  0  0  0  0  0  0  0
    5.0786    2.5952   -8.1284 C   0  0  0  0  0  0  0  0  0  0  0  0
    6.3017    2.6277   -7.4941 C   0  0  0  0  0  0  0  0  0  0  0  0
    6.9428    1.4716   -7.1171 F   0  0  0  0  0  0  0  0  0  0  0  0
    6.9426    3.8244   -7.2068 C   0  0  0  0  0  0  0  0  0  0  0  0
    6.3462    5.0161   -7.5624 C   0  0  0  0  0  0  0  0  0  0  0  0
    5.1156    4.9738   -8.2002 C   0  0  0  0  0  0  0  0  0  0  0  0
    4.4709    3.7778   -8.4894 C   0  0  0  0  0  0  0  0  0  0  0  0
    3.2563    3.8176   -9.1223 O   0  0  0  0  0  0  0  0  0  0  0  0
  1  2  1  6
  3  2  1  6
  2  4  1  6
  4  5  2  0
  4  9  1  0
  5  6  1  0
  6  7  2  0
  7  8  1  0
  8  9  2  0
  9 10  1  0
 10 11  1  0
 10 13  1  0
 11 12  2  0
 11 27  1  0
 12 31  1  0
 13 14  2  0
 13 15  1  0
 15 16  2  0
 16 17  1  0
 16 27  1  0
 18 17  1  1
 20 17  1  1
 18 19  1  0
 19 22  1  6
 20 21  1  0
 21 22  1  6
 22 23  1  0
 23 24  2  0
 25 23  1  1
 26 25  1  6
 27 28  2  0
 28 29  1  0
 29 30  1  0
 29 31  2  0
 31 32  1  0
 32 33  2  0
 32 38  1  0
 33 34  1  0
 33 35  1  0
 35 36  2  0
 36 37  1  0
 37 38  2  0
 38 39  1  0
M  END
$$$$
