
     RDKit          3D

 39 43  0  0  0  0  0  0  0  0999 V2000
    5.4055   -0.0510   -7.5546 C   0  0  0  0  0  0  0  0  0  0  0  0
    4.4381    1.0299   -7.9595 C   0  0  2  0  0  0  0  0  0  0  0  0
    5.1487    2.3670   -8.0068 C   0  0  0  0  0  0  0  0  0  0  0  0
    3.2316    1.0578   -7.1029 C   0  0  0  0  0  0  0  0  0  0  0  0
    3.3520    1.2328   -5.7256 C   0  0  0  0  0  0  0  0  0  0  0  0
    2.2352    1.2577   -4.9158 C   0  0  0  0  0  0  0  0  0  0  0  0
    1.0091    1.1025   -5.5283 C   0  0  0  0  0  0  0  0  0  0  0  0
    0.8802    0.9277   -6.8988 C   0  0  0  0  0  0  0  0  0  0  0  0
    2.0019    0.9035   -7.7082 C   0  0  0  0  0  0  0  0  0  0  0  0
    1.9289    0.7335   -9.1064 N   0  0  0  0  0  0  0  0  0  0  0  0
    1.7750   -0.4815   -9.6269 C   0  0  0  0  0  0  0  0  0  0  0  0
    1.7002   -1.5460   -8.7808 C   0  0  0  0  0  0  0  0  0  0  0  0
    2.0093    1.7798   -9.9388 C   0  0  0  0  0  0  0  0  0  0  0  0
    2.1565    2.9438   -9.4536 O   0  0  0  0  0  0  0  0  0  0  0  0
    1.9418    1.6622  -11.2699 N   0  0  0  0  0  0  0  0  0  0  0  0
    1.7828    0.4140  -11.8135 C   0  0  0  0  0  0  0  0  0  0  0  0
    1.6917    0.2769  -13.2324 N   0  0  0  0  0  0  0  0  0  0  0  0
    0.8631    1.2254  -13.9507 C   0  0  0  0  0  0  0  0  0  0  0  0
    1.7382    1.9867  -14.9721 C   0  0  0  0  0  0  0  0  0  0  0  0
    2.3850   -0.7419  -13.9880 C   0  0  0  0  0  0  0  0  0  0  0  0
    2.2276   -0.4243  -15.4549 C   0  0  0  0  0  0  0  0  0  0  0  0
    2.3811    0.9734  -15.7714 N   0  0  0  0  0  0  0  0  0  0  0  0
    3.1795    1.3339  -16.8959 C   0  0  0  0  0  0  0  0  0  0  0  0
    3.4605    2.5467  -17.1464 O   0  0  0  0  0  0  0  0  0  0  0  0
    3.7066    0.2843  -17.8101 C   0  0  0  0  0  0  0  0  0  0  0  0
    5.1967    0.4428  -17.9921 C   0  0  0  0  0  0  0  0  0  0  0  0
    1.6973   -0.6754  -11.0079 C   0  0  0  0  0  0  0  0  0  0  0  0
    1.5442   -1.9437  -11.5349 C   0  0  0  0  0  0  0  0  0  0  0  0
    1.4702   -3.0188  -10.6400 C   0  0  0  0  0  0  0  0  0  0  0  0
    1.2765   -4.6494  -11.2447 Cl  0  0  0  0  0  0  0  0  0  0  0  0
    1.5449   -2.8464   -9.2762 C   0  0  0  0  0  0  0  0  0  0  0  0
    1.4799   -3.9107   -8.3048 C   0  0  0  0  0  0  0  0  0  0  0  0
    2.6562   -4.3943   -7.7737 C   0  0  0  0  0  0  0  0  0  0  0  0
    3.8750   -3.8828   -8.1513 F   0  0  0  0  0  0  0  0  0  0  0  0
    2.6668   -5.4166   -6.8354 C   0  0  0  0  0  0  0  0  0  0  0  0
    1.4730   -5.9677   -6.4189 C   0  0  0  0  0  0  0  0  0  0  0  0
    0.2945   -5.4750   -6.9586 C   0  0  0  0  0  0  0  0  0  0  0  0
    0.2799   -4.4518   -7.8981 C   0  0  0  0  0  0  0  0  0  0  0  0
   -0.9252   -4.0184   -8.3851 O   0  0  0  0  0  0  0  0  0  0  0  0
  1  2  1  6
  3  2  1  6
  2  4  1  1
  4  5  2  0
  4  9  1  0
  5  6  1  0
  6  7  2  0
  7  8  1  0
  8  9  2  0
  9 10  1  0
 10 11  1  0
 10 13  1  0
 11 12  2  0
 11 27  1  0
 12 31  1  0
 13 14  2  0
 13 15  1  0
 15 16  2  0
 16 17  1  0
 16 27  1  0
 18 17  1  1
 20 17  1  1
 18 19  1  0
 19 22  1  6
 20 21  1  0
 21 22  1  6
 22 23  1  0
 23 24  2  0
 25 23  1  1
 26 25  1  6
 27 28  2  0
 28 29  1  0
 29 30  1  0
 29 31  2  0
 31 32  1  0
 32 33  2  0
 32 38  1  0
 33 34  1  0
 33 35  1  0
 35 36  2  0
 36 37  1  0
 37 38  2  0
 38 39  1  0
M  END
$$$$
