
     RDKit          3D

 39 43  0  0  0  0  0  0  0  0999 V2000
    0.2597    2.5879  -11.2764 C   0  0  0  0  0  0  0  0  0  0  0  0
    1.6195    2.5716  -10.6276 C   0  0  2  0  0  0  0  0  0  0  0  0
    1.8654    3.7833   -9.7785 C   0  0  0  0  0  0  0  0  0  0  0  0
    2.7213    2.0736  -11.4694 C   0  0  0  0  0  0  0  0  0  0  0  0
    3.3021    2.9827  -12.3692 C   0  0  0  0  0  0  0  0  0  0  0  0
    4.3443    2.6642  -13.2096 C   0  0  0  0  0  0  0  0  0  0  0  0
    4.8465    1.3867  -13.1679 C   0  0  0  0  0  0  0  0  0  0  0  0
    4.2980    0.4822  -12.2999 C   0  0  0  0  0  0  0  0  0  0  0  0
    3.2616    0.8235  -11.4743 C   0  0  0  0  0  0  0  0  0  0  0  0
    2.7049   -0.1388  -10.5824 N   0  0  0  0  0  0  0  0  0  0  0  0
    3.1395   -0.1047   -9.3083 C   0  0  0  0  0  0  0  0  0  0  0  0
    4.0821    0.8399   -8.8722 C   0  0  0  0  0  0  0  0  0  0  0  0
    1.7947   -1.0114  -11.0369 C   0  0  0  0  0  0  0  0  0  0  0  0
    1.3999   -1.0140  -12.2580 O   0  0  0  0  0  0  0  0  0  0  0  0
    1.2898   -1.9040  -10.1696 N   0  0  0  0  0  0  0  0  0  0  0  0
    1.6602   -1.9588   -8.8588 C   0  0  0  0  0  0  0  0  0  0  0  0
    1.1372   -2.9481   -7.9871 N   0  0  0  0  0  0  0  0  0  0  0  0
    1.9784   -3.6375   -7.0314 C   0  0  0  0  0  0  0  0  0  0  0  0
    1.1206   -4.4065   -6.0465 C   0  0  0  0  0  0  0  0  0  0  0  0
   -0.2603   -3.2866   -8.0282 C   0  0  0  0  0  0  0  0  0  0  0  0
   -0.4269   -4.7885   -7.9504 C   0  0  0  0  0  0  0  0  0  0  0  0
    0.1578   -5.2362   -6.7162 N   0  0  0  0  0  0  0  0  0  0  0  0
   -0.2123   -6.4822   -6.1723 C   0  0  0  0  0  0  0  0  0  0  0  0
    0.4800   -6.9693   -5.2401 O   0  0  0  0  0  0  0  0  0  0  0  0
   -1.3922   -7.2516   -6.6555 C   0  0  0  0  0  0  0  0  0  0  0  0
   -0.9362   -8.6309   -7.0561 C   0  0  0  0  0  0  0  0  0  0  0  0
    2.6018   -1.0343   -8.4374 C   0  0  0  0  0  0  0  0  0  0  0  0
    3.0342   -0.9879   -7.1234 C   0  0  0  0  0  0  0  0  0  0  0  0
    3.9648   -0.0482   -6.7131 C   0  0  0  0  0  0  0  0  0  0  0  0
    4.4933   -0.0130   -5.0448 Cl  0  0  0  0  0  0  0  0  0  0  0  0
    4.5063    0.8791   -7.5687 C   0  0  0  0  0  0  0  0  0  0  0  0
    5.4806    1.8857   -7.2081 C   0  0  0  0  0  0  0  0  0  0  0  0
    6.8280    1.7036   -7.4505 C   0  0  0  0  0  0  0  0  0  0  0  0
    7.1881    0.5304   -8.0441 F   0  0  0  0  0  0  0  0  0  0  0  0
    7.7492    2.6629   -7.1057 C   0  0  0  0  0  0  0  0  0  0  0  0
    7.3305    3.8208   -6.5114 C   0  0  0  0  0  0  0  0  0  0  0  0
    5.9826    4.0138   -6.2640 C   0  0  0  0  0  0  0  0  0  0  0  0
    5.0511    3.0463   -6.6114 C   0  0  0  0  0  0  0  0  0  0  0  0
    3.7137    3.2543   -6.3581 O   0  0  0  0  0  0  0  0  0  0  0  0
  2  1  1  6
  2  3  1  0
  2  4  1  0
  4  5  2  0
  4  9  1  0
  5  6  1  0
  6  7  2  0
  7  8  1  0
  8  9  2  0
  9 10  1  0
 10 11  1  0
 10 13  1  0
 11 12  2  0
 11 27  1  0
 12 31  1  0
 13 14  2  0
 13 15  1  0
 15 16  2  0
 16 17  1  0
 16 27  1  0
 17 18  1  0
 17 20  1  0
 18 19  1  0
 19 22  1  0
 20 21  1  0
 21 22  1  0
 22 23  1  0
 23 24  2  0
 23 25  1  0
 25 26  1  0
 27 28  2  0
 28 29  1  0
 29 30  1  0
 29 31  2  0
 31 32  1  0
 32 33  2  0
 32 38  1  0
 33 34  1  0
 33 35  1  0
 35 36  2  0
 36 37  1  0
 37 38  2  0
 38 39  1  0
M  END
$$$$
