
     RDKit          3D

 39 43  0  0  0  0  0  0  0  0999 V2000
    5.4181    1.0705  -12.4646 C   0  0  0  0  0  0  0  0  0  0  0  0
    3.9225    0.8885  -12.4815 C   0  0  2  0  0  0  0  0  0  0  0  0
    3.4359    0.2488  -13.7478 C   0  0  0  0  0  0  0  0  0  0  0  0
    3.1389    1.9999  -11.9147 C   0  0  0  0  0  0  0  0  0  0  0  0
    3.3862    3.2849  -12.4259 C   0  0  0  0  0  0  0  0  0  0  0  0
    2.7250    4.4149  -12.0022 C   0  0  0  0  0  0  0  0  0  0  0  0
    1.7693    4.2816  -11.0250 C   0  0  0  0  0  0  0  0  0  0  0  0
    1.5097    3.0404  -10.5107 C   0  0  0  0  0  0  0  0  0  0  0  0
    2.1813    1.9317  -10.9488 C   0  0  0  0  0  0  0  0  0  0  0  0
    1.8954    0.6506  -10.3932 N   0  0  0  0  0  0  0  0  0  0  0  0
    2.5529    0.3205   -9.2653 C   0  0  0  0  0  0  0  0  0  0  0  0
    3.4637    1.1976   -8.6552 C   0  0  0  0  0  0  0  0  0  0  0  0
    1.0060   -0.1482  -10.9991 C   0  0  0  0  0  0  0  0  0  0  0  0
    0.3941    0.1995  -12.0722 O   0  0  0  0  0  0  0  0  0  0  0  0
    0.7595   -1.3482  -10.4483 N   0  0  0  0  0  0  0  0  0  0  0  0
    1.3696   -1.7833   -9.3096 C   0  0  0  0  0  0  0  0  0  0  0  0
    1.1158   -3.0773   -8.7870 N   0  0  0  0  0  0  0  0  0  0  0  0
   -0.0683   -3.8246   -9.1552 C   0  0  0  0  0  0  0  0  0  0  0  0
    0.0633   -5.2629   -8.6959 C   0  0  0  0  0  0  0  0  0  0  0  0
    2.0457   -3.6870   -7.8744 C   0  0  0  0  0  0  0  0  0  0  0  0
    1.2928   -4.3497   -6.7415 C   0  0  0  0  0  0  0  0  0  0  0  0
    0.4256   -5.3459   -7.3081 N   0  0  0  0  0  0  0  0  0  0  0  0
   -0.0653   -6.3931   -6.5034 C   0  0  0  0  0  0  0  0  0  0  0  0
    0.3856   -6.5257   -5.3351 O   0  0  0  0  0  0  0  0  0  0  0  0
   -1.0989   -7.3546   -6.9776 C   0  0  0  0  0  0  0  0  0  0  0  0
   -0.4132   -8.6269   -7.4039 C   0  0  0  0  0  0  0  0  0  0  0  0
    2.2787   -0.9201   -8.7200 C   0  0  0  0  0  0  0  0  0  0  0  0
    2.9402   -1.2526   -7.5506 C   0  0  0  0  0  0  0  0  0  0  0  0
    3.8350   -0.3733   -6.9644 C   0  0  0  0  0  0  0  0  0  0  0  0
    4.6571   -0.8207   -5.4854 Cl  0  0  0  0  0  0  0  0  0  0  0  0
    4.1160    0.8607   -7.4969 C   0  0  0  0  0  0  0  0  0  0  0  0
    5.0377    1.8256   -6.9386 C   0  0  0  0  0  0  0  0  0  0  0  0
    6.3981    1.5891   -6.9093 C   0  0  0  0  0  0  0  0  0  0  0  0
    6.8228    0.4037   -7.4315 F   0  0  0  0  0  0  0  0  0  0  0  0
    7.2692    2.5091   -6.3776 C   0  0  0  0  0  0  0  0  0  0  0  0
    6.7863    3.6818   -5.8665 C   0  0  0  0  0  0  0  0  0  0  0  0
    5.4249    3.9290   -5.8908 C   0  0  0  0  0  0  0  0  0  0  0  0
    4.5440    3.0014   -6.4273 C   0  0  0  0  0  0  0  0  0  0  0  0
    3.1923    3.2633   -6.4436 O   0  0  0  0  0  0  0  0  0  0  0  0
  2  1  1  6
  2  3  1  0
  2  4  1  0
  4  5  2  0
  4  9  1  0
  5  6  1  0
  6  7  2  0
  7  8  1  0
  8  9  2  0
  9 10  1  0
 10 11  1  0
 10 13  1  0
 11 12  2  0
 11 27  1  0
 12 31  1  0
 13 14  2  0
 13 15  1  0
 15 16  2  0
 16 17  1  0
 16 27  1  0
 17 18  1  0
 17 20  1  0
 18 19  1  0
 19 22  1  0
 20 21  1  0
 21 22  1  0
 22 23  1  0
 23 24  2  0
 23 25  1  0
 25 26  1  0
 27 28  2  0
 28 29  1  0
 29 30  1  0
 29 31  2  0
 31 32  1  0
 32 33  2  0
 32 38  1  0
 33 34  1  0
 33 35  1  0
 35 36  2  0
 36 37  1  0
 37 38  2  0
 38 39  1  0
M  END
$$$$
