
     RDKit          3D

 39 43  0  0  0  0  0  0  0  0999 V2000
    3.8735   -4.6469   -7.7601 C   0  0  0  0  0  0  0  0  0  0  0  0
    2.7393   -3.8129   -7.2252 C   0  0  2  0  0  0  0  0  0  0  0  0
    2.7223   -3.8753   -5.7116 C   0  0  0  0  0  0  0  0  0  0  0  0
    1.4367   -4.1811   -7.8235 C   0  0  0  0  0  0  0  0  0  0  0  0
    0.9320   -5.4708   -7.6686 C   0  0  0  0  0  0  0  0  0  0  0  0
   -0.2796   -5.8272   -8.2240 C   0  0  0  0  0  0  0  0  0  0  0  0
   -0.9584   -4.8570   -8.9314 C   0  0  0  0  0  0  0  0  0  0  0  0
   -0.4631   -3.5705   -9.0905 C   0  0  0  0  0  0  0  0  0  0  0  0
    0.7520   -3.2161   -8.5322 C   0  0  0  0  0  0  0  0  0  0  0  0
    1.3002   -1.9227   -8.6588 N   0  0  0  0  0  0  0  0  0  0  0  0
    2.0253   -1.6037   -9.7280 C   0  0  0  0  0  0  0  0  0  0  0  0
    2.2289   -2.5539  -10.6821 C   0  0  0  0  0  0  0  0  0  0  0  0
    1.1056   -0.9903   -7.7171 C   0  0  0  0  0  0  0  0  0  0  0  0
    0.4157   -1.2834   -6.6924 O   0  0  0  0  0  0  0  0  0  0  0  0
    1.6053    0.2481   -7.8000 N   0  0  0  0  0  0  0  0  0  0  0  0
    2.3528    0.5845   -8.8986 C   0  0  0  0  0  0  0  0  0  0  0  0
    2.8773    1.9087   -9.0074 N   0  0  0  0  0  0  0  0  0  0  0  0
    1.9348    3.0105   -9.0073 C   0  0  0  0  0  0  0  0  0  0  0  0
    2.2466    3.9404   -7.8130 C   0  0  0  0  0  0  0  0  0  0  0  0
    4.2878    2.2095   -9.1052 C   0  0  0  0  0  0  0  0  0  0  0  0
    4.4576    3.7030   -8.9709 C   0  0  0  0  0  0  0  0  0  0  0  0
    3.6378    4.2958   -7.9443 N   0  0  0  0  0  0  0  0  0  0  0  0
    4.2308    5.2462   -7.0627 C   0  0  0  0  0  0  0  0  0  0  0  0
    3.5594    5.7995   -6.1377 O   0  0  0  0  0  0  0  0  0  0  0  0
    5.6656    5.6136   -7.2095 C   0  0  0  0  0  0  0  0  0  0  0  0
    6.3807    5.4875   -5.8862 C   0  0  0  0  0  0  0  0  0  0  0  0
    2.5765   -0.3290   -9.8777 C   0  0  0  0  0  0  0  0  0  0  0  0
    3.3331   -0.0136  -10.9901 C   0  0  0  0  0  0  0  0  0  0  0  0
    3.5251   -1.0113  -11.9544 C   0  0  0  0  0  0  0  0  0  0  0  0
    4.4736   -0.6744  -13.3858 Cl  0  0  0  0  0  0  0  0  0  0  0  0
    2.9895   -2.2727  -11.8235 C   0  0  0  0  0  0  0  0  0  0  0  0
    3.1545   -3.3426  -12.7768 C   0  0  0  0  0  0  0  0  0  0  0  0
    4.4164   -3.8576  -12.9813 C   0  0  0  0  0  0  0  0  0  0  0  0
    5.5062   -3.3729  -12.2979 F   0  0  0  0  0  0  0  0  0  0  0  0
    4.6467   -4.8868  -13.8832 C   0  0  0  0  0  0  0  0  0  0  0  0
    3.5902   -5.4128  -14.5969 C   0  0  0  0  0  0  0  0  0  0  0  0
    2.3241   -4.8884  -14.3847 C   0  0  0  0  0  0  0  0  0  0  0  0
    2.0897   -3.8582  -13.4828 C   0  0  0  0  0  0  0  0  0  0  0  0
    0.8101   -3.3931  -13.3282 O   0  0  0  0  0  0  0  0  0  0  0  0
  1  2  1  6
  3  2  1  6
  2  4  1  6
  4  5  2  0
  4  9  1  0
  5  6  1  0
  6  7  2  0
  7  8  1  0
  8  9  2  0
  9 10  1  0
 10 11  1  0
 10 13  1  0
 11 12  2  0
 11 27  1  0
 12 31  1  0
 13 14  2  0
 13 15  1  0
 15 16  2  0
 16 17  1  0
 16 27  1  0
 18 17  1  1
 20 17  1  1
 18 19  1  0
 19 22  1  6
 20 21  1  0
 21 22  1  6
 22 23  1  0
 23 24  2  0
 25 23  1  1
 26 25  1  6
 27 28  2  0
 28 29  1  0
 29 30  1  0
 29 31  2  0
 31 32  1  0
 32 33  2  0
 32 38  1  0
 33 34  1  0
 33 35  1  0
 35 36  2  0
 36 37  1  0
 37 38  2  0
 38 39  1  0
M  END
$$$$
