
     RDKit          3D

 39 43  0  0  0  0  0  0  0  0999 V2000
    2.3799    1.2012   -3.9318 C   0  0  0  0  0  0  0  0  0  0  0  0
    2.8147    1.1929   -5.3744 C   0  0  2  0  0  0  0  0  0  0  0  0
    4.3060    1.2478   -5.5252 C   0  0  0  0  0  0  0  0  0  0  0  0
    1.9898    1.9966   -6.2932 C   0  0  0  0  0  0  0  0  0  0  0  0
    2.1257    3.3931   -6.2217 C   0  0  0  0  0  0  0  0  0  0  0  0
    1.4299    4.2694   -7.0227 C   0  0  0  0  0  0  0  0  0  0  0  0
    0.5532    3.7522   -7.9446 C   0  0  0  0  0  0  0  0  0  0  0  0
    0.4029    2.3951   -8.0342 C   0  0  0  0  0  0  0  0  0  0  0  0
    1.1064    1.5444   -7.2257 C   0  0  0  0  0  0  0  0  0  0  0  0
    0.9279    0.1346   -7.3357 N   0  0  0  0  0  0  0  0  0  0  0  0
    1.7678   -0.5184   -8.1614 C   0  0  0  0  0  0  0  0  0  0  0  0
    2.7800    0.1498   -8.8683 C   0  0  0  0  0  0  0  0  0  0  0  0
   -0.0402   -0.4655   -6.6295 C   0  0  0  0  0  0  0  0  0  0  0  0
   -0.8218    0.1873   -5.8484 O   0  0  0  0  0  0  0  0  0  0  0  0
   -0.1801   -1.7953   -6.7558 N   0  0  0  0  0  0  0  0  0  0  0  0
    0.6140   -2.5532   -7.5641 C   0  0  0  0  0  0  0  0  0  0  0  0
    0.4022   -3.9486   -7.7050 N   0  0  0  0  0  0  0  0  0  0  0  0
    0.5758   -4.6170   -8.9775 C   0  0  0  0  0  0  0  0  0  0  0  0
    0.5778   -6.1194   -8.7774 C   0  0  0  0  0  0  0  0  0  0  0  0
    0.0133   -4.7422   -6.5699 C   0  0  0  0  0  0  0  0  0  0  0  0
   -1.0767   -5.7119   -6.9712 C   0  0  0  0  0  0  0  0  0  0  0  0
   -0.5587   -6.5546   -8.0139 N   0  0  0  0  0  0  0  0  0  0  0  0
   -1.1665   -7.7969   -8.2832 C   0  0  0  0  0  0  0  0  0  0  0  0
   -2.0781   -8.2073   -7.5175 O   0  0  0  0  0  0  0  0  0  0  0  0
   -0.7749   -8.6495   -9.4396 C   0  0  0  0  0  0  0  0  0  0  0  0
   -1.8098   -8.4950  -10.5239 C   0  0  0  0  0  0  0  0  0  0  0  0
    1.6015   -1.8866   -8.2710 C   0  0  0  0  0  0  0  0  0  0  0  0
    2.4762   -2.5611   -9.1051 C   0  0  0  0  0  0  0  0  0  0  0  0
    3.4681   -1.8836   -9.7938 C   0  0  0  0  0  0  0  0  0  0  0  0
    4.5602   -2.7626  -10.8416 Cl  0  0  0  0  0  0  0  0  0  0  0  0
    3.6425   -0.5253   -9.6936 C   0  0  0  0  0  0  0  0  0  0  0  0
    4.6548    0.2441  -10.3834 C   0  0  0  0  0  0  0  0  0  0  0  0
    5.8102    0.6506   -9.7451 C   0  0  0  0  0  0  0  0  0  0  0  0
    5.9441    0.2900   -8.4373 F   0  0  0  0  0  0  0  0  0  0  0  0
    6.7684    1.3815  -10.4050 C   0  0  0  0  0  0  0  0  0  0  0  0
    6.5801    1.7157  -11.7174 C   0  0  0  0  0  0  0  0  0  0  0  0
    5.4261    1.3135  -12.3666 C   0  0  0  0  0  0  0  0  0  0  0  0
    4.4576    0.5755  -11.7020 C   0  0  0  0  0  0  0  0  0  0  0  0
    3.3151    0.1834  -12.3630 O   0  0  0  0  0  0  0  0  0  0  0  0
  2  1  1  1
  2  3  1  0
  2  4  1  0
  4  5  2  0
  4  9  1  0
  5  6  1  0
  6  7  2  0
  7  8  1  0
  8  9  2  0
  9 10  1  0
 10 11  1  0
 10 13  1  0
 11 12  2  0
 11 27  1  0
 12 31  1  0
 13 14  2  0
 13 15  1  0
 15 16  2  0
 16 17  1  0
 16 27  1  0
 17 18  1  0
 17 20  1  0
 18 19  1  0
 19 22  1  0
 20 21  1  0
 21 22  1  0
 22 23  1  0
 23 24  2  0
 23 25  1  0
 25 26  1  0
 27 28  2  0
 28 29  1  0
 29 30  1  0
 29 31  2  0
 31 32  1  0
 32 33  2  0
 32 38  1  0
 33 34  1  0
 33 35  1  0
 35 36  2  0
 36 37  1  0
 37 38  2  0
 38 39  1  0
M  END
$$$$
