
     RDKit          3D

 39 43  0  0  0  0  0  0  0  0999 V2000
    5.7232    1.5202   -6.0123 C   0  0  0  0  0  0  0  0  0  0  0  0
    5.8156    0.4513   -7.0692 C   0  0  2  0  0  0  0  0  0  0  0  0
    7.0740   -0.3674   -6.8662 C   0  0  0  0  0  0  0  0  0  0  0  0
    5.7105    1.0013   -8.4392 C   0  0  0  0  0  0  0  0  0  0  0  0
    6.5729    2.0127   -8.8581 C   0  0  0  0  0  0  0  0  0  0  0  0
    6.4832    2.5358  -10.1317 C   0  0  0  0  0  0  0  0  0  0  0  0
    5.5103    2.0156  -10.9595 C   0  0  0  0  0  0  0  0  0  0  0  0
    4.6475    1.0086  -10.5505 C   0  0  0  0  0  0  0  0  0  0  0  0
    4.7402    0.4860   -9.2729 C   0  0  0  0  0  0  0  0  0  0  0  0
    3.8927   -0.5404   -8.8064 N   0  0  0  0  0  0  0  0  0  0  0  0
    2.7233   -0.2414   -8.2460 C   0  0  0  0  0  0  0  0  0  0  0  0
    2.3757    1.0700   -8.1283 C   0  0  0  0  0  0  0  0  0  0  0  0
    4.2377   -1.8300   -8.9161 C   0  0  0  0  0  0  0  0  0  0  0  0
    5.3512   -2.1273   -9.4488 O   0  0  0  0  0  0  0  0  0  0  0  0
    3.4622   -2.8333   -8.4893 N   0  0  0  0  0  0  0  0  0  0  0  0
    2.2559   -2.5334   -7.9114 C   0  0  0  0  0  0  0  0  0  0  0  0
    1.4109   -3.5961   -7.4675 N   0  0  0  0  0  0  0  0  0  0  0  0
   -0.0199   -3.3620   -7.4576 C   0  0  0  0  0  0  0  0  0  0  0  0
   -0.7057   -4.3932   -8.3820 C   0  0  0  0  0  0  0  0  0  0  0  0
    1.9001   -4.8879   -7.0414 C   0  0  0  0  0  0  0  0  0  0  0  0
    0.7132   -5.8043   -6.8718 C   0  0  0  0  0  0  0  0  0  0  0  0
   -0.2715   -5.6873   -7.9177 N   0  0  0  0  0  0  0  0  0  0  0  0
   -0.8118   -6.8799   -8.4816 C   0  0  0  0  0  0  0  0  0  0  0  0
   -0.2035   -7.9906   -8.3880 O   0  0  0  0  0  0  0  0  0  0  0  0
   -2.1150   -6.8476   -9.1997 C   0  0  0  0  0  0  0  0  0  0  0  0
   -2.0841   -5.8181  -10.3033 C   0  0  0  0  0  0  0  0  0  0  0  0
    1.8655   -1.2398   -7.7789 C   0  0  0  0  0  0  0  0  0  0  0  0
    0.6570   -0.9145   -7.1929 C   0  0  0  0  0  0  0  0  0  0  0  0
    0.3268    0.4425   -7.0858 C   0  0  0  0  0  0  0  0  0  0  0  0
   -1.1892    0.9194   -6.3534 Cl  0  0  0  0  0  0  0  0  0  0  0  0
    1.1597    1.4397   -7.5407 C   0  0  0  0  0  0  0  0  0  0  0  0
    0.8797    2.8522   -7.4556 C   0  0  0  0  0  0  0  0  0  0  0  0
    0.5985    3.5418   -8.6152 C   0  0  0  0  0  0  0  0  0  0  0  0
    0.5808    2.9107   -9.8363 F   0  0  0  0  0  0  0  0  0  0  0  0
    0.3204    4.9013   -8.6060 C   0  0  0  0  0  0  0  0  0  0  0  0
    0.3236    5.5865   -7.4090 C   0  0  0  0  0  0  0  0  0  0  0  0
    0.6075    4.8845   -6.2473 C   0  0  0  0  0  0  0  0  0  0  0  0
    0.8865    3.5237   -6.2526 C   0  0  0  0  0  0  0  0  0  0  0  0
    1.1576    2.8997   -5.0632 O   0  0  0  0  0  0  0  0  0  0  0  0
  1  2  1  6
  3  2  1  6
  2  4  1  6
  4  5  2  0
  4  9  1  0
  5  6  1  0
  6  7  2  0
  7  8  1  0
  8  9  2  0
  9 10  1  0
 10 11  1  0
 10 13  1  0
 11 12  2  0
 11 27  1  0
 12 31  1  0
 13 14  2  0
 13 15  1  0
 15 16  2  0
 16 17  1  0
 16 27  1  0
 18 17  1  1
 20 17  1  1
 18 19  1  0
 19 22  1  6
 20 21  1  0
 21 22  1  6
 22 23  1  0
 23 24  2  0
 25 23  1  1
 26 25  1  6
 27 28  2  0
 28 29  1  0
 29 30  1  0
 29 31  2  0
 31 32  1  0
 32 33  2  0
 32 38  1  0
 33 34  1  0
 33 35  1  0
 35 36  2  0
 36 37  1  0
 37 38  2  0
 38 39  1  0
M  END
$$$$
