
     RDKit          3D

 39 43  0  0  0  0  0  0  0  0999 V2000
    1.2618    0.5464  -13.6368 C   0  0  0  0  0  0  0  0  0  0  0  0
    2.1382    1.0463  -12.5188 C   0  0  2  0  0  0  0  0  0  0  0  0
    1.6407    2.3934  -12.0361 C   0  0  0  0  0  0  0  0  0  0  0  0
    3.5704    1.0698  -12.8913 C   0  0  0  0  0  0  0  0  0  0  0  0
    4.0323    1.9711  -13.8486 C   0  0  0  0  0  0  0  0  0  0  0  0
    5.3644    2.0009  -14.2068 C   0  0  0  0  0  0  0  0  0  0  0  0
    6.2059    1.1062  -13.5792 C   0  0  0  0  0  0  0  0  0  0  0  0
    5.7543    0.2055  -12.6250 C   0  0  0  0  0  0  0  0  0  0  0  0
    4.4180    0.1782  -12.2678 C   0  0  0  0  0  0  0  0  0  0  0  0
    3.9058   -0.7126  -11.3017 N   0  0  0  0  0  0  0  0  0  0  0  0
    3.9460   -0.3961  -10.0098 C   0  0  0  0  0  0  0  0  0  0  0  0
    4.4984    0.7955   -9.6497 C   0  0  0  0  0  0  0  0  0  0  0  0
    3.3686   -1.8875  -11.6555 C   0  0  0  0  0  0  0  0  0  0  0  0
    3.3251   -2.2003  -12.8852 O   0  0  0  0  0  0  0  0  0  0  0  0
    2.8696   -2.7591  -10.7715 N   0  0  0  0  0  0  0  0  0  0  0  0
    2.9069   -2.4400   -9.4389 C   0  0  0  0  0  0  0  0  0  0  0  0
    2.3615   -3.3542   -8.4865 N   0  0  0  0  0  0  0  0  0  0  0  0
    2.2884   -2.9251   -7.1036 C   0  0  0  0  0  0  0  0  0  0  0  0
    0.8127   -2.9510   -6.6452 C   0  0  0  0  0  0  0  0  0  0  0  0
    1.8708   -4.6711   -8.8255 C   0  0  0  0  0  0  0  0  0  0  0  0
    1.1715   -5.2356   -7.6133 C   0  0  0  0  0  0  0  0  0  0  0  0
    0.3386   -4.2843   -6.9215 N   0  0  0  0  0  0  0  0  0  0  0  0
   -0.9645   -4.6912   -6.5111 C   0  0  0  0  0  0  0  0  0  0  0  0
   -1.7519   -3.8902   -5.9186 O   0  0  0  0  0  0  0  0  0  0  0  0
   -1.4349   -6.0789   -6.7720 C   0  0  0  0  0  0  0  0  0  0  0  0
   -2.7166   -6.0606   -7.5693 C   0  0  0  0  0  0  0  0  0  0  0  0
    3.4429   -1.2600   -9.0345 C   0  0  0  0  0  0  0  0  0  0  0  0
    3.4973   -0.9213   -7.6958 C   0  0  0  0  0  0  0  0  0  0  0  0
    4.0710    0.3106   -7.3561 C   0  0  0  0  0  0  0  0  0  0  0  0
    4.1697    0.7972   -5.6781 Cl  0  0  0  0  0  0  0  0  0  0  0  0
    4.5717    1.1745   -8.3038 C   0  0  0  0  0  0  0  0  0  0  0  0
    5.1774    2.4520   -8.0183 C   0  0  0  0  0  0  0  0  0  0  0  0
    6.4533    2.4777   -7.4977 C   0  0  0  0  0  0  0  0  0  0  0  0
    7.1483    1.3178   -7.2504 F   0  0  0  0  0  0  0  0  0  0  0  0
    7.0955    3.6711   -7.1997 C   0  0  0  0  0  0  0  0  0  0  0  0
    6.4463    4.8665   -7.4279 C   0  0  0  0  0  0  0  0  0  0  0  0
    5.1629    4.8311   -7.9518 C   0  0  0  0  0  0  0  0  0  0  0  0
    4.5168    3.6384   -8.2513 C   0  0  0  0  0  0  0  0  0  0  0  0
    3.2481    3.6850   -8.7669 O   0  0  0  0  0  0  0  0  0  0  0  0
  1  2  1  6
  3  2  1  6
  2  4  1  6
  4  5  2  0
  4  9  1  0
  5  6  1  0
  6  7  2  0
  7  8  1  0
  8  9  2  0
  9 10  1  0
 10 11  1  0
 10 13  1  0
 11 12  2  0
 11 27  1  0
 12 31  1  0
 13 14  2  0
 13 15  1  0
 15 16  2  0
 16 17  1  0
 16 27  1  0
 18 17  1  1
 20 17  1  1
 18 19  1  0
 19 22  1  6
 20 21  1  0
 21 22  1  6
 22 23  1  0
 23 24  2  0
 25 23  1  1
 26 25  1  6
 27 28  2  0
 28 29  1  0
 29 30  1  0
 29 31  2  0
 31 32  1  0
 32 33  2  0
 32 38  1  0
 33 34  1  0
 33 35  1  0
 35 36  2  0
 36 37  1  0
 37 38  2  0
 38 39  1  0
M  END
$$$$
