
     RDKit          3D

 39 43  0  0  0  0  0  0  0  0999 V2000
    5.4456    1.9777  -10.8083 C   0  0  0  0  0  0  0  0  0  0  0  0
    3.9779    1.8758  -11.1338 C   0  0  2  0  0  0  0  0  0  0  0  0
    3.7287    1.6288  -12.5920 C   0  0  0  0  0  0  0  0  0  0  0  0
    3.1009    2.8251  -10.4265 C   0  0  0  0  0  0  0  0  0  0  0  0
    3.3558    4.1941  -10.6123 C   0  0  0  0  0  0  0  0  0  0  0  0
    2.6148    5.1947  -10.0261 C   0  0  0  0  0  0  0  0  0  0  0  0
    1.5669    4.8373   -9.2136 C   0  0  0  0  0  0  0  0  0  0  0  0
    1.2979    3.5102   -9.0165 C   0  0  0  0  0  0  0  0  0  0  0  0
    2.0500    2.5338   -9.6108 C   0  0  0  0  0  0  0  0  0  0  0  0
    1.7519    1.1583   -9.3854 N   0  0  0  0  0  0  0  0  0  0  0  0
    2.3836    0.5639   -8.3553 C   0  0  0  0  0  0  0  0  0  0  0  0
    3.2797    1.2643   -7.5323 C   0  0  0  0  0  0  0  0  0  0  0  0
    0.8770    0.5327  -10.1850 C   0  0  0  0  0  0  0  0  0  0  0  0
    0.2897    1.1308  -11.1567 O   0  0  0  0  0  0  0  0  0  0  0  0
    0.6184   -0.7630   -9.9439 N   0  0  0  0  0  0  0  0  0  0  0  0
    1.2025   -1.4618   -8.9295 C   0  0  0  0  0  0  0  0  0  0  0  0
    0.9372   -2.8420   -8.7385 N   0  0  0  0  0  0  0  0  0  0  0  0
   -0.2188   -3.4809   -9.3315 C   0  0  0  0  0  0  0  0  0  0  0  0
   -0.0943   -4.9870   -9.2161 C   0  0  0  0  0  0  0  0  0  0  0  0
    1.8272   -3.6498   -7.9480 C   0  0  0  0  0  0  0  0  0  0  0  0
    1.0261   -4.5591   -7.0419 C   0  0  0  0  0  0  0  0  0  0  0  0
    0.1993   -5.3937   -7.8698 N   0  0  0  0  0  0  0  0  0  0  0  0
   -0.3195   -6.6000   -7.3591 C   0  0  0  0  0  0  0  0  0  0  0  0
   -1.1618   -7.2386   -8.0435 O   0  0  0  0  0  0  0  0  0  0  0  0
    0.0871   -7.1544   -6.0381 C   0  0  0  0  0  0  0  0  0  0  0  0
   -1.1533   -7.4157   -5.2234 C   0  0  0  0  0  0  0  0  0  0  0  0
    2.0974   -0.7698   -8.1298 C   0  0  0  0  0  0  0  0  0  0  0  0
    2.7321   -1.3765   -7.0599 C   0  0  0  0  0  0  0  0  0  0  0  0
    3.6128   -0.6682   -6.2599 C   0  0  0  0  0  0  0  0  0  0  0  0
    4.4010   -1.4614   -4.9135 Cl  0  0  0  0  0  0  0  0  0  0  0  0
    3.9054    0.6561   -6.4744 C   0  0  0  0  0  0  0  0  0  0  0  0
    4.8137    1.4542   -5.6804 C   0  0  0  0  0  0  0  0  0  0  0  0
    6.1731    1.4561   -5.9248 C   0  0  0  0  0  0  0  0  0  0  0  0
    6.6100    0.6692   -6.9486 F   0  0  0  0  0  0  0  0  0  0  0  0
    7.0314    2.2159   -5.1674 C   0  0  0  0  0  0  0  0  0  0  0  0
    6.5367    2.9861   -4.1517 C   0  0  0  0  0  0  0  0  0  0  0  0
    5.1763    2.9918   -3.8981 C   0  0  0  0  0  0  0  0  0  0  0  0
    4.3082    2.2253   -4.6618 C   0  0  0  0  0  0  0  0  0  0  0  0
    2.9573    2.2425   -4.3961 O   0  0  0  0  0  0  0  0  0  0  0  0
  2  1  1  6
  2  3  1  0
  2  4  1  0
  4  5  2  0
  4  9  1  0
  5  6  1  0
  6  7  2  0
  7  8  1  0
  8  9  2  0
  9 10  1  0
 10 11  1  0
 10 13  1  0
 11 12  2  0
 11 27  1  0
 12 31  1  0
 13 14  2  0
 13 15  1  0
 15 16  2  0
 16 17  1  0
 16 27  1  0
 17 18  1  0
 17 20  1  0
 18 19  1  0
 19 22  1  0
 20 21  1  0
 21 22  1  0
 22 23  1  0
 23 24  2  0
 23 25  1  0
 25 26  1  0
 27 28  2  0
 28 29  1  0
 29 30  1  0
 29 31  2  0
 31 32  1  0
 32 33  2  0
 32 38  1  0
 33 34  1  0
 33 35  1  0
 35 36  2  0
 36 37  1  0
 37 38  2  0
 38 39  1  0
M  END
$$$$
