
     RDKit          3D

 39 43  0  0  0  0  0  0  0  0999 V2000
    2.8675   -3.1185   -8.7907 C   0  0  0  0  0  0  0  0  0  0  0  0
    3.3549   -1.7573   -8.3692 C   0  0  2  0  0  0  0  0  0  0  0  0
    4.7315   -1.8721   -7.7471 C   0  0  0  0  0  0  0  0  0  0  0  0
    2.3904   -1.0595   -7.4898 C   0  0  0  0  0  0  0  0  0  0  0  0
    2.4916   -1.1756   -6.1048 C   0  0  0  0  0  0  0  0  0  0  0  0
    1.5970   -0.5325   -5.2743 C   0  0  0  0  0  0  0  0  0  0  0  0
    0.6099    0.2212   -5.8743 C   0  0  0  0  0  0  0  0  0  0  0  0
    0.5019    0.3421   -7.2525 C   0  0  0  0  0  0  0  0  0  0  0  0
    1.4007   -0.3037   -8.0826 C   0  0  0  0  0  0  0  0  0  0  0  0
    1.3404   -0.2121   -9.4887 N   0  0  0  0  0  0  0  0  0  0  0  0
    2.1096    0.6588  -10.1373 C   0  0  0  0  0  0  0  0  0  0  0  0
    2.9410    1.4573   -9.4122 C   0  0  0  0  0  0  0  0  0  0  0  0
    0.5178   -0.9928  -10.2013 C   0  0  0  0  0  0  0  0  0  0  0  0
   -0.2210   -1.8272   -9.5932 O   0  0  0  0  0  0  0  0  0  0  0  0
    0.4322   -0.9394  -11.5355 N   0  0  0  0  0  0  0  0  0  0  0  0
    1.2217   -0.0453  -12.2109 C   0  0  0  0  0  0  0  0  0  0  0  0
    1.1526    0.0093  -13.6365 N   0  0  0  0  0  0  0  0  0  0  0  0
    1.9440    1.0184  -14.3129 C   0  0  0  0  0  0  0  0  0  0  0  0
    2.9331    0.3221  -15.2748 C   0  0  0  0  0  0  0  0  0  0  0  0
    0.3511   -0.8881  -14.4377 C   0  0  0  0  0  0  0  0  0  0  0  0
    0.7143   -0.6720  -15.8864 C   0  0  0  0  0  0  0  0  0  0  0  0
    2.1289   -0.5250  -16.1201 N   0  0  0  0  0  0  0  0  0  0  0  0
    2.7168   -1.2323  -17.2092 C   0  0  0  0  0  0  0  0  0  0  0  0
    3.9768   -1.3368  -17.3272 O   0  0  0  0  0  0  0  0  0  0  0  0
    1.8562   -1.8706  -18.2422 C   0  0  0  0  0  0  0  0  0  0  0  0
    2.0492   -1.1972  -19.5794 C   0  0  0  0  0  0  0  0  0  0  0  0
    2.0702    0.7666  -11.5294 C   0  0  0  0  0  0  0  0  0  0  0  0
    2.8697    1.6802  -12.1894 C   0  0  0  0  0  0  0  0  0  0  0  0
    3.7144    2.4876  -11.4170 C   0  0  0  0  0  0  0  0  0  0  0  0
    4.7514    3.6641  -12.1933 Cl  0  0  0  0  0  0  0  0  0  0  0  0
    3.7665    2.3951  -10.0444 C   0  0  0  0  0  0  0  0  0  0  0  0
    4.6098    3.1993   -9.1942 C   0  0  0  0  0  0  0  0  0  0  0  0
    4.2037    4.4779   -8.8786 C   0  0  0  0  0  0  0  0  0  0  0  0
    3.0211    4.9911   -9.3560 F   0  0  0  0  0  0  0  0  0  0  0  0
    4.9659    5.3057   -8.0666 C   0  0  0  0  0  0  0  0  0  0  0  0
    6.1620    4.8434   -7.5584 C   0  0  0  0  0  0  0  0  0  0  0  0
    6.5626    3.5557   -7.8813 C   0  0  0  0  0  0  0  0  0  0  0  0
    5.8023    2.7242   -8.6939 C   0  0  0  0  0  0  0  0  0  0  0  0
    6.2651    1.4640   -8.9677 O   0  0  0  0  0  0  0  0  0  0  0  0
  1  2  1  6
  3  2  1  6
  2  4  1  1
  4  5  2  0
  4  9  1  0
  5  6  1  0
  6  7  2  0
  7  8  1  0
  8  9  2  0
  9 10  1  0
 10 11  1  0
 10 13  1  0
 11 12  2  0
 11 27  1  0
 12 31  1  0
 13 14  2  0
 13 15  1  0
 15 16  2  0
 16 17  1  0
 16 27  1  0
 18 17  1  1
 20 17  1  1
 18 19  1  0
 19 22  1  6
 20 21  1  0
 21 22  1  6
 22 23  1  0
 23 24  2  0
 25 23  1  1
 26 25  1  6
 27 28  2  0
 28 29  1  0
 29 30  1  0
 29 31  2  0
 31 32  1  0
 32 33  2  0
 32 38  1  0
 33 34  1  0
 33 35  1  0
 35 36  2  0
 36 37  1  0
 37 38  2  0
 38 39  1  0
M  END
$$$$
