
     RDKit          3D

 39 43  0  0  0  0  0  0  0  0999 V2000
    6.1221   -1.0593  -11.9243 C   0  0  0  0  0  0  0  0  0  0  0  0
    4.6365   -1.3047  -11.9526 C   0  0  2  0  0  0  0  0  0  0  0  0
    4.3351   -2.5537  -12.7553 C   0  0  0  0  0  0  0  0  0  0  0  0
    3.8785   -0.1263  -12.4294 C   0  0  0  0  0  0  0  0  0  0  0  0
    4.3450    0.6180  -13.5113 C   0  0  0  0  0  0  0  0  0  0  0  0
    3.6491    1.7203  -13.9634 C   0  0  0  0  0  0  0  0  0  0  0  0
    2.4841    2.0456  -13.3004 C   0  0  0  0  0  0  0  0  0  0  0  0
    2.0126    1.3100  -12.2224 C   0  0  0  0  0  0  0  0  0  0  0  0
    2.7125    0.2050  -11.7716 C   0  0  0  0  0  0  0  0  0  0  0  0
    2.2774   -0.5807  -10.6841 N   0  0  0  0  0  0  0  0  0  0  0  0
    2.6296   -0.2595   -9.4417 C   0  0  0  0  0  0  0  0  0  0  0  0
    3.4214    0.8322   -9.2525 C   0  0  0  0  0  0  0  0  0  0  0  0
    1.5042   -1.6583  -10.8708 C   0  0  0  0  0  0  0  0  0  0  0  0
    1.1621   -1.9746  -12.0519 O   0  0  0  0  0  0  0  0  0  0  0  0
    1.0680   -2.4281   -9.8672 N   0  0  0  0  0  0  0  0  0  0  0  0
    1.4261   -2.1035   -8.5845 C   0  0  0  0  0  0  0  0  0  0  0  0
    0.9525   -2.9071   -7.5027 N   0  0  0  0  0  0  0  0  0  0  0  0
   -0.4251   -3.3569   -7.5483 C   0  0  0  0  0  0  0  0  0  0  0  0
   -0.4512   -4.9021   -7.5382 C   0  0  0  0  0  0  0  0  0  0  0  0
    1.7693   -3.3037   -6.3779 C   0  0  0  0  0  0  0  0  0  0  0  0
    0.9971   -4.3223   -5.5757 C   0  0  0  0  0  0  0  0  0  0  0  0
    0.3081   -5.3006   -6.3791 N   0  0  0  0  0  0  0  0  0  0  0  0
    0.3892   -6.6725   -6.0007 C   0  0  0  0  0  0  0  0  0  0  0  0
   -0.0404   -7.5950   -6.7603 O   0  0  0  0  0  0  0  0  0  0  0  0
    0.9863   -7.0567   -4.6926 C   0  0  0  0  0  0  0  0  0  0  0  0
    2.1913   -7.9415   -4.9020 C   0  0  0  0  0  0  0  0  0  0  0  0
    2.2093   -1.0200   -8.3481 C   0  0  0  0  0  0  0  0  0  0  0  0
    2.5882   -0.6786   -7.0638 C   0  0  0  0  0  0  0  0  0  0  0  0
    3.4027    0.4493   -6.9006 C   0  0  0  0  0  0  0  0  0  0  0  0
    3.9168    0.9336   -5.2995 Cl  0  0  0  0  0  0  0  0  0  0  0  0
    3.8263    1.2104   -7.9665 C   0  0  0  0  0  0  0  0  0  0  0  0
    4.6677    2.3776   -7.8649 C   0  0  0  0  0  0  0  0  0  0  0  0
    5.9789    2.2158   -7.4726 C   0  0  0  0  0  0  0  0  0  0  0  0
    6.4901    0.9734   -7.1811 F   0  0  0  0  0  0  0  0  0  0  0  0
    6.8431    3.2949   -7.3538 C   0  0  0  0  0  0  0  0  0  0  0  0
    6.3850    4.5653   -7.6340 C   0  0  0  0  0  0  0  0  0  0  0  0
    5.0642    4.7187   -8.0280 C   0  0  0  0  0  0  0  0  0  0  0  0
    4.1962    3.6409   -8.1480 C   0  0  0  0  0  0  0  0  0  0  0  0
    2.9048    3.8727   -8.5430 O   0  0  0  0  0  0  0  0  0  0  0  0
  1  2  1  6
  3  2  1  6
  2  4  1  6
  4  5  2  0
  4  9  1  0
  5  6  1  0
  6  7  2  0
  7  8  1  0
  8  9  2  0
  9 10  1  0
 10 11  1  0
 10 13  1  0
 11 12  2  0
 11 27  1  0
 12 31  1  0
 13 14  2  0
 13 15  1  0
 15 16  2  0
 16 17  1  0
 16 27  1  0
 18 17  1  1
 20 17  1  1
 18 19  1  0
 19 22  1  6
 20 21  1  0
 21 22  1  6
 22 23  1  0
 23 24  2  0
 25 23  1  1
 26 25  1  6
 27 28  2  0
 28 29  1  0
 29 30  1  0
 29 31  2  0
 31 32  1  0
 32 33  2  0
 32 38  1  0
 33 34  1  0
 33 35  1  0
 35 36  2  0
 36 37  1  0
 37 38  2  0
 38 39  1  0
M  END
$$$$
