
     RDKit          3D

 39 43  0  0  0  0  0  0  0  0999 V2000
    0.6309    1.3437  -13.1162 C   0  0  0  0  0  0  0  0  0  0  0  0
    1.6695    1.6178  -12.0607 C   0  0  2  0  0  0  0  0  0  0  0  0
    1.5410    3.0448  -11.5686 C   0  0  0  0  0  0  0  0  0  0  0  0
    3.0394    1.2963  -12.5195 C   0  0  0  0  0  0  0  0  0  0  0  0
    3.6469    2.0657  -13.5100 C   0  0  0  0  0  0  0  0  0  0  0  0
    4.9223    1.7745  -13.9485 C   0  0  0  0  0  0  0  0  0  0  0  0
    5.5585    0.6981  -13.3661 C   0  0  0  0  0  0  0  0  0  0  0  0
    4.9609   -0.0732  -12.3794 C   0  0  0  0  0  0  0  0  0  0  0  0
    3.6820    0.2215  -11.9417 C   0  0  0  0  0  0  0  0  0  0  0  0
    3.0288   -0.5257  -10.9395 N   0  0  0  0  0  0  0  0  0  0  0  0
    3.1276   -0.1646   -9.6625 C   0  0  0  0  0  0  0  0  0  0  0  0
    3.8769    0.9295   -9.3528 C   0  0  0  0  0  0  0  0  0  0  0  0
    2.2974   -1.6058  -11.2435 C   0  0  0  0  0  0  0  0  0  0  0  0
    2.1963   -1.9599  -12.4586 O   0  0  0  0  0  0  0  0  0  0  0  0
    1.6602   -2.3398  -10.3242 N   0  0  0  0  0  0  0  0  0  0  0  0
    1.7566   -1.9740   -9.0067 C   0  0  0  0  0  0  0  0  0  0  0  0
    1.0667   -2.7391   -8.0173 N   0  0  0  0  0  0  0  0  0  0  0  0
   -0.1902   -3.3552   -8.3952 C   0  0  0  0  0  0  0  0  0  0  0  0
   -0.0739   -4.8862   -8.2194 C   0  0  0  0  0  0  0  0  0  0  0  0
    1.5553   -2.9412   -6.6719 C   0  0  0  0  0  0  0  0  0  0  0  0
    0.6821   -3.9779   -6.0084 C   0  0  0  0  0  0  0  0  0  0  0  0
    0.3502   -5.0944   -6.8572 N   0  0  0  0  0  0  0  0  0  0  0  0
    0.4457   -6.4112   -6.3196 C   0  0  0  0  0  0  0  0  0  0  0  0
    1.2415   -6.6811   -5.3676 O   0  0  0  0  0  0  0  0  0  0  0  0
   -0.3951   -7.5095   -6.8691 C   0  0  0  0  0  0  0  0  0  0  0  0
   -1.4271   -7.9416   -5.8557 C   0  0  0  0  0  0  0  0  0  0  0  0
    2.4879   -0.8864   -8.6522 C   0  0  0  0  0  0  0  0  0  0  0  0
    2.6047   -0.5040   -7.3294 C   0  0  0  0  0  0  0  0  0  0  0  0
    3.3818    0.6254   -7.0417 C   0  0  0  0  0  0  0  0  0  0  0  0
    3.5687    1.1608   -5.3863 Cl  0  0  0  0  0  0  0  0  0  0  0  0
    4.0191    1.3488   -8.0244 C   0  0  0  0  0  0  0  0  0  0  0  0
    4.8354    2.5153   -7.7928 C   0  0  0  0  0  0  0  0  0  0  0  0
    6.1444    2.3391   -7.3991 C   0  0  0  0  0  0  0  0  0  0  0  0
    6.6766    1.0835   -7.2269 F   0  0  0  0  0  0  0  0  0  0  0  0
    6.9850    3.4167   -7.1590 C   0  0  0  0  0  0  0  0  0  0  0  0
    6.5050    4.7001   -7.3165 C   0  0  0  0  0  0  0  0  0  0  0  0
    5.1868    4.8678   -7.7128 C   0  0  0  0  0  0  0  0  0  0  0  0
    4.3423    3.7916   -7.9540 C   0  0  0  0  0  0  0  0  0  0  0  0
    3.0517    4.0380   -8.3430 O   0  0  0  0  0  0  0  0  0  0  0  0
  1  2  1  6
  3  2  1  6
  2  4  1  6
  4  5  2  0
  4  9  1  0
  5  6  1  0
  6  7  2  0
  7  8  1  0
  8  9  2  0
  9 10  1  0
 10 11  1  0
 10 13  1  0
 11 12  2  0
 11 27  1  0
 12 31  1  0
 13 14  2  0
 13 15  1  0
 15 16  2  0
 16 17  1  0
 16 27  1  0
 18 17  1  1
 20 17  1  1
 18 19  1  0
 19 22  1  6
 20 21  1  0
 21 22  1  6
 22 23  1  0
 23 24  2  0
 25 23  1  1
 26 25  1  6
 27 28  2  0
 28 29  1  0
 29 30  1  0
 29 31  2  0
 31 32  1  0
 32 33  2  0
 32 38  1  0
 33 34  1  0
 33 35  1  0
 35 36  2  0
 36 37  1  0
 37 38  2  0
 38 39  1  0
M  END
$$$$
