
     RDKit          3D

 39 43  0  0  0  0  0  0  0  0999 V2000
    0.7859    2.5615  -11.9800 C   0  0  0  0  0  0  0  0  0  0  0  0
    1.9406    2.6521  -11.0163 C   0  0  2  0  0  0  0  0  0  0  0  0
    1.9168    3.9157  -10.2086 C   0  0  0  0  0  0  0  0  0  0  0  0
    3.2370    2.1750  -11.5284 C   0  0  0  0  0  0  0  0  0  0  0  0
    4.0077    3.0855  -12.2703 C   0  0  0  0  0  0  0  0  0  0  0  0
    5.2413    2.7859  -12.8015 C   0  0  0  0  0  0  0  0  0  0  0  0
    5.7497    1.5268  -12.5958 C   0  0  0  0  0  0  0  0  0  0  0  0
    5.0184    0.6213  -11.8763 C   0  0  0  0  0  0  0  0  0  0  0  0
    3.7936    0.9437  -11.3585 C   0  0  0  0  0  0  0  0  0  0  0  0
    3.0496   -0.0194  -10.6165 N   0  0  0  0  0  0  0  0  0  0  0  0
    3.2134   -0.0107   -9.2799 C   0  0  0  0  0  0  0  0  0  0  0  0
    4.0616    0.9094   -8.6436 C   0  0  0  0  0  0  0  0  0  0  0  0
    2.2382   -0.8678  -11.2631 C   0  0  0  0  0  0  0  0  0  0  0  0
    2.1029   -0.8464  -12.5391 O   0  0  0  0  0  0  0  0  0  0  0  0
    1.5511   -1.7618  -10.5333 N   0  0  0  0  0  0  0  0  0  0  0  0
    1.6431   -1.8414   -9.1755 C   0  0  0  0  0  0  0  0  0  0  0  0
    0.9360   -2.8318   -8.4468 N   0  0  0  0  0  0  0  0  0  0  0  0
    1.5362   -3.5189   -7.3227 C   0  0  0  0  0  0  0  0  0  0  0  0
    0.4767   -4.2899   -6.5610 C   0  0  0  0  0  0  0  0  0  0  0  0
   -0.4138   -3.1738   -8.8082 C   0  0  0  0  0  0  0  0  0  0  0  0
   -0.5902   -4.6761   -8.7697 C   0  0  0  0  0  0  0  0  0  0  0  0
   -0.3043   -5.1221   -7.4337 N   0  0  0  0  0  0  0  0  0  0  0  0
   -0.7865   -6.3689   -6.9886 C   0  0  0  0  0  0  0  0  0  0  0  0
   -1.5277   -7.0426   -7.7518 O   0  0  0  0  0  0  0  0  0  0  0  0
   -0.4563   -6.9264   -5.6478 C   0  0  0  0  0  0  0  0  0  0  0  0
   -1.7332   -7.0807   -4.8628 C   0  0  0  0  0  0  0  0  0  0  0  0
    2.4930   -0.9411   -8.5540 C   0  0  0  0  0  0  0  0  0  0  0  0
    2.6466   -0.9207   -7.1786 C   0  0  0  0  0  0  0  0  0  0  0  0
    3.4882   -0.0050   -6.5700 C   0  0  0  0  0  0  0  0  0  0  0  0
    3.6628   -0.0023   -4.8284 Cl  0  0  0  0  0  0  0  0  0  0  0  0
    4.2092    0.9230   -7.2802 C   0  0  0  0  0  0  0  0  0  0  0  0
    5.1049    1.9054   -6.7101 C   0  0  0  0  0  0  0  0  0  0  0  0
    4.6419    3.1254   -6.2573 C   0  0  0  0  0  0  0  0  0  0  0  0
    3.3031    3.3524   -6.3766 F   0  0  0  0  0  0  0  0  0  0  0  0
    5.4971    4.0550   -5.7169 C   0  0  0  0  0  0  0  0  0  0  0  0
    6.8317    3.7731   -5.6231 C   0  0  0  0  0  0  0  0  0  0  0  0
    7.3063    2.5538   -6.0736 C   0  0  0  0  0  0  0  0  0  0  0  0
    6.4444    1.6139   -6.6195 C   0  0  0  0  0  0  0  0  0  0  0  0
    6.9332    0.4054   -7.0630 O   0  0  0  0  0  0  0  0  0  0  0  0
  2  1  1  6
  2  3  1  0
  2  4  1  0
  4  5  2  0
  4  9  1  0
  5  6  1  0
  6  7  2  0
  7  8  1  0
  8  9  2  0
  9 10  1  0
 10 11  1  0
 10 13  1  0
 11 12  2  0
 11 27  1  0
 12 31  1  0
 13 14  2  0
 13 15  1  0
 15 16  2  0
 16 17  1  0
 16 27  1  0
 17 18  1  0
 17 20  1  0
 18 19  1  0
 19 22  1  0
 20 21  1  0
 21 22  1  0
 22 23  1  0
 23 24  2  0
 23 25  1  0
 25 26  1  0
 27 28  2  0
 28 29  1  0
 29 30  1  0
 29 31  2  0
 31 32  1  0
 32 33  2  0
 32 38  1  0
 33 34  1  0
 33 35  1  0
 35 36  2  0
 36 37  1  0
 37 38  2  0
 38 39  1  0
M  END
$$$$
