
     RDKit          3D

 39 43  0  0  0  0  0  0  0  0999 V2000
   -0.3783    1.3837   -4.3823 C   0  0  0  0  0  0  0  0  0  0  0  0
    0.8185    1.5077   -5.2880 C   0  0  2  0  0  0  0  0  0  0  0  0
    2.0393    1.8964   -4.4795 C   0  0  0  0  0  0  0  0  0  0  0  0
    0.5742    2.4242   -6.4242 C   0  0  0  0  0  0  0  0  0  0  0  0
    0.4571    3.7958   -6.2074 C   0  0  0  0  0  0  0  0  0  0  0  0
    0.2264    4.6603   -7.2577 C   0  0  0  0  0  0  0  0  0  0  0  0
    0.1185    4.1075   -8.5168 C   0  0  0  0  0  0  0  0  0  0  0  0
    0.2338    2.7430   -8.7415 C   0  0  0  0  0  0  0  0  0  0  0  0
    0.4654    1.8789   -7.6863 C   0  0  0  0  0  0  0  0  0  0  0  0
    0.5953    0.4849   -7.8577 N   0  0  0  0  0  0  0  0  0  0  0  0
    1.7896   -0.0533   -8.0918 C   0  0  0  0  0  0  0  0  0  0  0  0
    2.8701    0.7719   -8.1697 C   0  0  0  0  0  0  0  0  0  0  0  0
   -0.4685   -0.3259   -7.7876 C   0  0  0  0  0  0  0  0  0  0  0  0
   -1.6131    0.1764   -7.5651 O   0  0  0  0  0  0  0  0  0  0  0  0
   -0.3881   -1.6526   -7.9415 N   0  0  0  0  0  0  0  0  0  0  0  0
    0.8387   -2.2146   -8.1824 C   0  0  0  0  0  0  0  0  0  0  0  0
    0.9405   -3.6315   -8.3311 N   0  0  0  0  0  0  0  0  0  0  0  0
    2.2490   -4.1887   -8.6134 C   0  0  0  0  0  0  0  0  0  0  0  0
    2.6321   -5.1723   -7.4847 C   0  0  0  0  0  0  0  0  0  0  0  0
   -0.1801   -4.5360   -8.2049 C   0  0  0  0  0  0  0  0  0  0  0  0
    0.3563   -5.9465   -8.1967 C   0  0  0  0  0  0  0  0  0  0  0  0
    1.5456   -6.1164   -7.4004 N   0  0  0  0  0  0  0  0  0  0  0  0
    1.6274   -7.2417   -6.5293 C   0  0  0  0  0  0  0  0  0  0  0  0
    2.6528   -7.4479   -5.8092 O   0  0  0  0  0  0  0  0  0  0  0  0
    0.4997   -8.2094   -6.4444 C   0  0  0  0  0  0  0  0  0  0  0  0
    0.9573   -9.4986   -5.8063 C   0  0  0  0  0  0  0  0  0  0  0  0
    1.9445   -1.4309   -8.2622 C   0  0  0  0  0  0  0  0  0  0  0  0
    3.1899   -1.9755   -8.5115 C   0  0  0  0  0  0  0  0  0  0  0  0
    4.2823   -1.1019   -8.5860 C   0  0  0  0  0  0  0  0  0  0  0  0
    5.8854   -1.7296   -8.8992 Cl  0  0  0  0  0  0  0  0  0  0  0  0
    4.1483    0.2582   -8.4205 C   0  0  0  0  0  0  0  0  0  0  0  0
    5.2309    1.2089   -8.4901 C   0  0  0  0  0  0  0  0  0  0  0  0
    6.2146    1.1628   -7.5259 C   0  0  0  0  0  0  0  0  0  0  0  0
    6.1796    0.2352   -6.5121 F   0  0  0  0  0  0  0  0  0  0  0  0
    7.2840    2.0471   -7.5323 C   0  0  0  0  0  0  0  0  0  0  0  0
    7.3713    2.9993   -8.5263 C   0  0  0  0  0  0  0  0  0  0  0  0
    6.3770    3.0382   -9.4922 C   0  0  0  0  0  0  0  0  0  0  0  0
    5.3050    2.1548   -9.4890 C   0  0  0  0  0  0  0  0  0  0  0  0
    4.3619    2.2559  -10.4779 O   0  0  0  0  0  0  0  0  0  0  0  0
  1  2  1  6
  3  2  1  6
  2  4  1  6
  4  5  2  0
  4  9  1  0
  5  6  1  0
  6  7  2  0
  7  8  1  0
  8  9  2  0
  9 10  1  0
 10 11  1  0
 10 13  1  0
 11 12  2  0
 11 27  1  0
 12 31  1  0
 13 14  2  0
 13 15  1  0
 15 16  2  0
 16 17  1  0
 16 27  1  0
 18 17  1  1
 20 17  1  1
 18 19  1  0
 19 22  1  6
 20 21  1  0
 21 22  1  6
 22 23  1  0
 23 24  2  0
 25 23  1  1
 26 25  1  6
 27 28  2  0
 28 29  1  0
 29 30  1  0
 29 31  2  0
 31 32  1  0
 32 33  2  0
 32 38  1  0
 33 34  1  0
 33 35  1  0
 35 36  2  0
 36 37  1  0
 37 38  2  0
 38 39  1  0
M  END
$$$$
