
     RDKit          3D

 39 43  0  0  0  0  0  0  0  0999 V2000
    4.8333    1.4133  -12.1610 C   0  0  0  0  0  0  0  0  0  0  0  0
    3.3301    1.3745  -12.0645 C   0  0  2  0  0  0  0  0  0  0  0  0
    2.6863    0.8768  -13.3245 C   0  0  0  0  0  0  0  0  0  0  0  0
    2.7070    2.5107  -11.3635 C   0  0  0  0  0  0  0  0  0  0  0  0
    2.9332    3.7923  -11.8924 C   0  0  0  0  0  0  0  0  0  0  0  0
    2.4084    4.9442  -11.3523 C   0  0  0  0  0  0  0  0  0  0  0  0
    1.6189    4.8372  -10.2338 C   0  0  0  0  0  0  0  0  0  0  0  0
    1.3833    3.5998   -9.6993 C   0  0  0  0  0  0  0  0  0  0  0  0
    1.9171    2.4691  -10.2550 C   0  0  0  0  0  0  0  0  0  0  0  0
    1.6603    1.1922   -9.6760 N   0  0  0  0  0  0  0  0  0  0  0  0
    2.4943    0.7938   -8.6967 C   0  0  0  0  0  0  0  0  0  0  0  0
    3.5556    1.5993   -8.2542 C   0  0  0  0  0  0  0  0  0  0  0  0
    0.6256    0.4633  -10.1170 C   0  0  0  0  0  0  0  0  0  0  0  0
   -0.1524    0.8751  -11.0508 O   0  0  0  0  0  0  0  0  0  0  0  0
    0.4116   -0.7347   -9.5489 N   0  0  0  0  0  0  0  0  0  0  0  0
    1.1946   -1.2355   -8.5517 C   0  0  0  0  0  0  0  0  0  0  0  0
    0.9623   -2.5262   -8.0113 N   0  0  0  0  0  0  0  0  0  0  0  0
    2.0502   -3.4433   -7.7444 C   0  0  0  0  0  0  0  0  0  0  0  0
    1.5542   -4.6060   -6.9082 C   0  0  0  0  0  0  0  0  0  0  0  0
   -0.3764   -2.9547   -7.7047 C   0  0  0  0  0  0  0  0  0  0  0  0
   -0.5759   -4.3824   -8.1645 C   0  0  0  0  0  0  0  0  0  0  0  0
    0.3804   -5.2071   -7.4782 N   0  0  0  0  0  0  0  0  0  0  0  0
    0.1648   -6.5953   -7.3702 C   0  0  0  0  0  0  0  0  0  0  0  0
   -0.8692   -7.0929   -7.8887 O   0  0  0  0  0  0  0  0  0  0  0  0
    1.1116   -7.5033   -6.6654 C   0  0  0  0  0  0  0  0  0  0  0  0
    0.4883   -7.9307   -5.3617 C   0  0  0  0  0  0  0  0  0  0  0  0
    2.2495   -0.4430   -8.1293 C   0  0  0  0  0  0  0  0  0  0  0  0
    3.0951   -0.8452   -7.1100 C   0  0  0  0  0  0  0  0  0  0  0  0
    4.1363   -0.0359   -6.6880 C   0  0  0  0  0  0  0  0  0  0  0  0
    5.1898   -0.5704   -5.3965 Cl  0  0  0  0  0  0  0  0  0  0  0  0
    4.3897    1.1936   -7.2441 C   0  0  0  0  0  0  0  0  0  0  0  0
    5.4575    2.0877   -6.8532 C   0  0  0  0  0  0  0  0  0  0  0  0
    5.5107    2.6359   -5.5866 C   0  0  0  0  0  0  0  0  0  0  0  0
    4.5080    2.2913   -4.7300 F   0  0  0  0  0  0  0  0  0  0  0  0
    6.5272    3.4848   -5.2207 C   0  0  0  0  0  0  0  0  0  0  0  0
    7.5066    3.7964   -6.1225 C   0  0  0  0  0  0  0  0  0  0  0  0
    7.4631    3.2526   -7.3943 C   0  0  0  0  0  0  0  0  0  0  0  0
    6.4376    2.3953   -7.7655 C   0  0  0  0  0  0  0  0  0  0  0  0
    6.4095    1.8631   -9.0351 O   0  0  0  0  0  0  0  0  0  0  0  0
  2  1  1  6
  2  3  1  0
  2  4  1  0
  4  5  2  0
  4  9  1  0
  5  6  1  0
  6  7  2  0
  7  8  1  0
  8  9  2  0
  9 10  1  0
 10 11  1  0
 10 13  1  0
 11 12  2  0
 11 27  1  0
 12 31  1  0
 13 14  2  0
 13 15  1  0
 15 16  2  0
 16 17  1  0
 16 27  1  0
 17 18  1  0
 17 20  1  0
 18 19  1  0
 19 22  1  0
 20 21  1  0
 21 22  1  0
 22 23  1  0
 23 24  2  0
 23 25  1  0
 25 26  1  0
 27 28  2  0
 28 29  1  0
 29 30  1  0
 29 31  2  0
 31 32  1  0
 32 33  2  0
 32 38  1  0
 33 34  1  0
 33 35  1  0
 35 36  2  0
 36 37  1  0
 37 38  2  0
 38 39  1  0
M  END
$$$$
