
     RDKit          3D

 39 43  0  0  0  0  0  0  0  0999 V2000
    0.5355   -0.9929   -6.3544 C   0  0  0  0  0  0  0  0  0  0  0  0
    0.8991   -1.5561   -7.7030 C   0  0  2  0  0  0  0  0  0  0  0  0
   -0.2276   -2.4277   -8.2189 C   0  0  0  0  0  0  0  0  0  0  0  0
    2.2009   -2.2600   -7.6886 C   0  0  0  0  0  0  0  0  0  0  0  0
    2.4777   -3.2047   -6.7021 C   0  0  0  0  0  0  0  0  0  0  0  0
    3.6886   -3.8655   -6.6760 C   0  0  0  0  0  0  0  0  0  0  0  0
    4.6004   -3.5493   -7.6614 C   0  0  0  0  0  0  0  0  0  0  0  0
    4.3330   -2.6100   -8.6472 C   0  0  0  0  0  0  0  0  0  0  0  0
    3.1178   -1.9493   -8.6709 C   0  0  0  0  0  0  0  0  0  0  0  0
    2.7916   -0.9894   -9.6514 N   0  0  0  0  0  0  0  0  0  0  0  0
    3.2561    0.2538   -9.5532 C   0  0  0  0  0  0  0  0  0  0  0  0
    4.0393    0.5723   -8.4857 C   0  0  0  0  0  0  0  0  0  0  0  0
    2.0157   -1.3010  -10.6978 C   0  0  0  0  0  0  0  0  0  0  0  0
    1.5665   -2.4839  -10.8018 O   0  0  0  0  0  0  0  0  0  0  0  0
    1.6850   -0.4216  -11.6505 N   0  0  0  0  0  0  0  0  0  0  0  0
    2.1600    0.8608  -11.5567 C   0  0  0  0  0  0  0  0  0  0  0  0
    1.8287    1.8044  -12.5766 N   0  0  0  0  0  0  0  0  0  0  0  0
    2.4707    3.1035  -12.5290 C   0  0  0  0  0  0  0  0  0  0  0  0
    3.2731    3.3171  -13.8325 C   0  0  0  0  0  0  0  0  0  0  0  0
    0.9031    1.5330  -13.6533 C   0  0  0  0  0  0  0  0  0  0  0  0
    0.9906    2.6693  -14.6424 C   0  0  0  0  0  0  0  0  0  0  0  0
    2.3362    3.1117  -14.9090 N   0  0  0  0  0  0  0  0  0  0  0  0
    2.7209    3.3468  -16.2613 C   0  0  0  0  0  0  0  0  0  0  0  0
    3.9371    3.5207  -16.5825 O   0  0  0  0  0  0  0  0  0  0  0  0
    1.6936    3.3935  -17.3371 C   0  0  0  0  0  0  0  0  0  0  0  0
    1.3211    4.8226  -17.6494 C   0  0  0  0  0  0  0  0  0  0  0  0
    2.9495    1.2215  -10.5127 C   0  0  0  0  0  0  0  0  0  0  0  0
    3.4332    2.5105  -10.3945 C   0  0  0  0  0  0  0  0  0  0  0  0
    4.2362    2.8082   -9.2860 C   0  0  0  0  0  0  0  0  0  0  0  0
    4.8794    4.4224   -9.0793 Cl  0  0  0  0  0  0  0  0  0  0  0  0
    4.5487    1.8674   -8.3309 C   0  0  0  0  0  0  0  0  0  0  0  0
    5.3646    2.1121   -7.1669 C   0  0  0  0  0  0  0  0  0  0  0  0
    4.8011    2.7590   -6.0882 C   0  0  0  0  0  0  0  0  0  0  0  0
    3.4890    3.1686   -6.1054 F   0  0  0  0  0  0  0  0  0  0  0  0
    5.5283    3.0267   -4.9371 C   0  0  0  0  0  0  0  0  0  0  0  0
    6.8497    2.6382   -4.8634 C   0  0  0  0  0  0  0  0  0  0  0  0
    7.4082    1.9880   -5.9534 C   0  0  0  0  0  0  0  0  0  0  0  0
    6.6836    1.7183   -7.1074 C   0  0  0  0  0  0  0  0  0  0  0  0
    7.3055    1.0714   -8.1428 O   0  0  0  0  0  0  0  0  0  0  0  0
  1  2  1  6
  3  2  1  6
  2  4  1  1
  4  5  2  0
  4  9  1  0
  5  6  1  0
  6  7  2  0
  7  8  1  0
  8  9  2  0
  9 10  1  0
 10 11  1  0
 10 13  1  0
 11 12  2  0
 11 27  1  0
 12 31  1  0
 13 14  2  0
 13 15  1  0
 15 16  2  0
 16 17  1  0
 16 27  1  0
 18 17  1  1
 20 17  1  1
 18 19  1  0
 19 22  1  6
 20 21  1  0
 21 22  1  6
 22 23  1  0
 23 24  2  0
 25 23  1  1
 26 25  1  6
 27 28  2  0
 28 29  1  0
 29 30  1  0
 29 31  2  0
 31 32  1  0
 32 33  2  0
 32 38  1  0
 33 34  1  0
 33 35  1  0
 35 36  2  0
 36 37  1  0
 37 38  2  0
 38 39  1  0
M  END
$$$$
