
     RDKit          3D

 39 43  0  0  0  0  0  0  0  0999 V2000
    6.1873    0.3271  -13.1125 C   0  0  0  0  0  0  0  0  0  0  0  0
    4.7424   -0.0562  -12.9237 C   0  0  2  0  0  0  0  0  0  0  0  0
    4.3656   -1.2790  -13.7062 C   0  0  0  0  0  0  0  0  0  0  0  0
    3.7869    1.0642  -12.8758 C   0  0  0  0  0  0  0  0  0  0  0  0
    4.0632    2.1775  -13.6869 C   0  0  0  0  0  0  0  0  0  0  0  0
    3.2574    3.2911  -13.7545 C   0  0  0  0  0  0  0  0  0  0  0  0
    2.1187    3.3177  -12.9872 C   0  0  0  0  0  0  0  0  0  0  0  0
    1.8272    2.2455  -12.1886 C   0  0  0  0  0  0  0  0  0  0  0  0
    2.6450    1.1496  -12.1388 C   0  0  0  0  0  0  0  0  0  0  0  0
    2.3211    0.0475  -11.2949 N   0  0  0  0  0  0  0  0  0  0  0  0
    2.8258    0.0733  -10.0466 C   0  0  0  0  0  0  0  0  0  0  0  0
    3.6188    1.1380   -9.5901 C   0  0  0  0  0  0  0  0  0  0  0  0
    1.5465   -0.9395  -11.7660 C   0  0  0  0  0  0  0  0  0  0  0  0
    1.0789   -0.9307  -12.9611 O   0  0  0  0  0  0  0  0  0  0  0  0
    1.2600   -1.9623  -10.9440 N   0  0  0  0  0  0  0  0  0  0  0  0
    1.7191   -2.0376   -9.6626 C   0  0  0  0  0  0  0  0  0  0  0  0
    1.4318   -3.1589   -8.8427 N   0  0  0  0  0  0  0  0  0  0  0  0
    0.1740   -3.8687   -8.9428 C   0  0  0  0  0  0  0  0  0  0  0  0
    0.2549   -5.1760   -8.1802 C   0  0  0  0  0  0  0  0  0  0  0  0
    2.4001   -3.6267   -7.8871 C   0  0  0  0  0  0  0  0  0  0  0  0
    1.7125   -3.9585   -6.5807 C   0  0  0  0  0  0  0  0  0  0  0  0
    0.7357   -4.9802   -6.8406 N   0  0  0  0  0  0  0  0  0  0  0  0
    0.2543   -5.7796   -5.7851 C   0  0  0  0  0  0  0  0  0  0  0  0
    0.8724   -5.7763   -4.6880 O   0  0  0  0  0  0  0  0  0  0  0  0
   -0.9596   -6.6329   -5.9121 C   0  0  0  0  0  0  0  0  0  0  0  0
   -0.5467   -8.0775   -5.7967 C   0  0  0  0  0  0  0  0  0  0  0  0
    2.5137   -0.9918   -9.2222 C   0  0  0  0  0  0  0  0  0  0  0  0
    3.0166   -0.9570   -7.9331 C   0  0  0  0  0  0  0  0  0  0  0  0
    3.7970    0.1024   -7.5020 C   0  0  0  0  0  0  0  0  0  0  0  0
    4.4195    0.1197   -5.8662 Cl  0  0  0  0  0  0  0  0  0  0  0  0
    4.1142    1.1650   -8.3116 C   0  0  0  0  0  0  0  0  0  0  0  0
    4.9228    2.3011   -7.9271 C   0  0  0  0  0  0  0  0  0  0  0  0
    6.0204    2.1577   -7.1011 C   0  0  0  0  0  0  0  0  0  0  0  0
    6.2985    0.8948   -6.6698 F   0  0  0  0  0  0  0  0  0  0  0  0
    6.7848    3.2403   -6.7388 C   0  0  0  0  0  0  0  0  0  0  0  0
    6.4579    4.4848   -7.2012 C   0  0  0  0  0  0  0  0  0  0  0  0
    5.3603    4.6400   -8.0295 C   0  0  0  0  0  0  0  0  0  0  0  0
    4.5873    3.5481   -8.3963 C   0  0  0  0  0  0  0  0  0  0  0  0
    3.4983    3.7201   -9.2213 O   0  0  0  0  0  0  0  0  0  0  0  0
  2  1  1  6
  2  3  1  0
  2  4  1  0
  4  5  2  0
  4  9  1  0
  5  6  1  0
  6  7  2  0
  7  8  1  0
  8  9  2  0
  9 10  1  0
 10 11  1  0
 10 13  1  0
 11 12  2  0
 11 27  1  0
 12 31  1  0
 13 14  2  0
 13 15  1  0
 15 16  2  0
 16 17  1  0
 16 27  1  0
 17 18  1  0
 17 20  1  0
 18 19  1  0
 19 22  1  0
 20 21  1  0
 21 22  1  0
 22 23  1  0
 23 24  2  0
 23 25  1  0
 25 26  1  0
 27 28  2  0
 28 29  1  0
 29 30  1  0
 29 31  2  0
 31 32  1  0
 32 33  2  0
 32 38  1  0
 33 34  1  0
 33 35  1  0
 35 36  2  0
 36 37  1  0
 37 38  2  0
 38 39  1  0
M  END
$$$$
