
     RDKit          3D

 39 43  0  0  0  0  0  0  0  0999 V2000
    1.6212    0.4982  -13.8790 C   0  0  0  0  0  0  0  0  0  0  0  0
    2.3261    1.0739  -12.6791 C   0  0  2  0  0  0  0  0  0  0  0  0
    1.7091    2.4071  -12.3087 C   0  0  0  0  0  0  0  0  0  0  0  0
    3.7909    1.1599  -12.8722 C   0  0  0  0  0  0  0  0  0  0  0  0
    4.3303    2.1051  -13.7427 C   0  0  0  0  0  0  0  0  0  0  0  0
    5.6939    2.1934  -13.9337 C   0  0  0  0  0  0  0  0  0  0  0  0
    6.4872    1.3113  -13.2300 C   0  0  0  0  0  0  0  0  0  0  0  0
    5.9584    0.3672  -12.3613 C   0  0  0  0  0  0  0  0  0  0  0  0
    4.5907    0.2813  -12.1718 C   0  0  0  0  0  0  0  0  0  0  0  0
    4.0000   -0.6555  -11.2985 N   0  0  0  0  0  0  0  0  0  0  0  0
    3.9075   -0.3934   -9.9971 C   0  0  0  0  0  0  0  0  0  0  0  0
    4.4025    0.7884   -9.5356 C   0  0  0  0  0  0  0  0  0  0  0  0
    3.5192   -1.8207  -11.7514 C   0  0  0  0  0  0  0  0  0  0  0  0
    3.6023   -2.0819  -12.9911 O   0  0  0  0  0  0  0  0  0  0  0  0
    2.9495   -2.7348  -10.9577 N   0  0  0  0  0  0  0  0  0  0  0  0
    2.8500   -2.4718   -9.6161 C   0  0  0  0  0  0  0  0  0  0  0  0
    2.2280   -3.4319   -8.7606 N   0  0  0  0  0  0  0  0  0  0  0  0
    1.9977   -3.0566   -7.3792 C   0  0  0  0  0  0  0  0  0  0  0  0
    0.4826   -3.1290   -7.0833 C   0  0  0  0  0  0  0  0  0  0  0  0
    1.8077   -4.7445   -9.1966 C   0  0  0  0  0  0  0  0  0  0  0  0
    0.9967   -5.3680   -8.0871 C   0  0  0  0  0  0  0  0  0  0  0  0
    0.0725   -4.4601   -7.4557 N   0  0  0  0  0  0  0  0  0  0  0  0
   -1.2569   -4.9078   -7.2023 C   0  0  0  0  0  0  0  0  0  0  0  0
   -1.9502   -5.4680   -8.1068 O   0  0  0  0  0  0  0  0  0  0  0  0
   -1.8669   -4.7263   -5.8569 C   0  0  0  0  0  0  0  0  0  0  0  0
   -0.9409   -5.2445   -4.7833 C   0  0  0  0  0  0  0  0  0  0  0  0
    3.3245   -1.3036   -9.1126 C   0  0  0  0  0  0  0  0  0  0  0  0
    3.2412   -1.0212   -7.7624 C   0  0  0  0  0  0  0  0  0  0  0  0
    3.7588    0.2020   -7.3174 C   0  0  0  0  0  0  0  0  0  0  0  0
    3.6837    0.6186   -5.6195 Cl  0  0  0  0  0  0  0  0  0  0  0  0
    4.3366    1.1111   -8.1747 C   0  0  0  0  0  0  0  0  0  0  0  0
    4.8907    2.3826   -7.7786 C   0  0  0  0  0  0  0  0  0  0  0  0
    4.1767    3.5293   -8.0521 C   0  0  0  0  0  0  0  0  0  0  0  0
    2.9593    3.4791   -8.6884 F   0  0  0  0  0  0  0  0  0  0  0  0
    4.6505    4.7849   -7.6994 C   0  0  0  0  0  0  0  0  0  0  0  0
    5.8666    4.8959   -7.0581 C   0  0  0  0  0  0  0  0  0  0  0  0
    6.5780    3.7368   -6.7869 C   0  0  0  0  0  0  0  0  0  0  0  0
    6.1070    2.4782   -7.1386 C   0  0  0  0  0  0  0  0  0  0  0  0
    6.8678    1.3794   -6.8365 O   0  0  0  0  0  0  0  0  0  0  0  0
  1  2  1  6
  3  2  1  6
  2  4  1  6
  4  5  2  0
  4  9  1  0
  5  6  1  0
  6  7  2  0
  7  8  1  0
  8  9  2  0
  9 10  1  0
 10 11  1  0
 10 13  1  0
 11 12  2  0
 11 27  1  0
 12 31  1  0
 13 14  2  0
 13 15  1  0
 15 16  2  0
 16 17  1  0
 16 27  1  0
 18 17  1  1
 20 17  1  1
 18 19  1  0
 19 22  1  6
 20 21  1  0
 21 22  1  6
 22 23  1  0
 23 24  2  0
 25 23  1  1
 26 25  1  6
 27 28  2  0
 28 29  1  0
 29 30  1  0
 29 31  2  0
 31 32  1  0
 32 33  2  0
 32 38  1  0
 33 34  1  0
 33 35  1  0
 35 36  2  0
 36 37  1  0
 37 38  2  0
 38 39  1  0
M  END
$$$$
