
     RDKit          3D

 24 27  0  0  0  0  0  0  0  0999 V2000
   -4.1777    5.9197  -18.8821 C   0  0  0  0  0  0  0  0  0  0  0  0
   -3.7764    7.2320  -18.9977 C   0  0  0  0  0  0  0  0  0  0  0  0
   -3.8036    8.0017  -17.8448 C   0  0  0  0  0  0  0  0  0  0  0  0
   -3.0230    9.8079  -19.0892 C   0  0  0  0  0  0  0  0  0  0  0  0
   -3.3637    7.7659  -20.2141 C   0  0  0  0  0  0  0  0  0  0  0  0
   -5.7699    7.0315  -22.0819 C   0  0  0  0  0  0  0  0  0  0  0  0
   -6.8763    6.2987  -21.7679 C   0  0  0  0  0  0  0  0  0  0  0  0
   -5.3042    9.4675  -22.6120 C   0  0  0  0  0  0  0  0  0  0  0  0
   -4.5860    5.3983  -17.6779 C   0  0  0  0  0  0  0  0  0  0  0  0
   -3.3331    6.9255  -21.4090 C   0  0  0  0  0  0  0  0  0  0  0  0
   -4.3867    6.6070  -22.2250 C   0  0  0  0  0  0  0  0  0  0  0  0
   -2.5396    5.6626  -22.9746 C   0  0  0  0  0  0  0  0  0  0  0  0
   -0.8494    6.4509  -21.2802 C   0  0  0  0  0  0  0  0  0  0  0  0
   -6.2279    8.3475  -22.2546 C   0  0  0  0  0  0  0  0  0  0  0  0
   -4.6133    6.1614  -16.5297 C   0  0  0  0  0  0  0  0  0  0  0  0
   -6.9332    4.8578  -21.4923 C   0  0  0  0  0  0  0  0  0  0  0  0
   -4.2182    7.4686  -16.6241 C   0  0  0  0  0  0  0  0  0  0  0  0
   -2.9790    9.0818  -20.2605 C   0  0  0  0  0  0  0  0  0  0  0  0
   -5.0153    5.6611  -15.3315 F   0  0  0  0  0  0  0  0  0  0  0  0
   -3.8696    5.8166  -23.1973 N   0  0  0  0  0  0  0  0  0  0  0  0
   -2.1932    6.3432  -21.8720 N   0  0  0  0  0  0  0  0  0  0  0  0
   -7.9079    7.1466  -21.7610 N   0  0  0  0  0  0  0  0  0  0  0  0
   -3.4207    9.2751  -17.9406 N   0  0  0  0  0  0  0  0  0  0  0  0
   -7.4978    8.3460  -22.0510 O   0  0  0  0  0  0  0  0  0  0  0  0
  2  1  2  0
  1  9  1  0
  2  3  1  0
  5  2  1  0
  3 17  2  0
  3 23  1  0
 18  4  1  0
  4 23  2  0
 10  5  1  0
  5 18  2  0
  6  7  1  0
 11  6  1  0
  6 14  2  0
  7 16  1  0
  7 22  2  0
 14  8  1  0
  9 15  2  0
 10 11  2  0
 10 21  1  0
 11 20  1  0
 20 12  2  0
 12 21  1  0
 21 13  1  0
 14 24  1  0
 15 17  1  0
 15 19  1  0
 22 24  1  0
M  END
$$$$
