
     RDKit          3D

 24 27  0  0  0  0  0  0  0  0999 V2000
   -2.1406    7.0963  -19.3721 C   0  0  0  0  0  0  0  0  0  0  0  0
   -3.3579    6.4535  -19.3307 C   0  0  0  0  0  0  0  0  0  0  0  0
   -3.8025    6.0284  -18.0882 C   0  0  0  0  0  0  0  0  0  0  0  0
   -5.7137    5.1829  -19.1142 C   0  0  0  0  0  0  0  0  0  0  0  0
   -4.1096    6.2367  -20.4809 C   0  0  0  0  0  0  0  0  0  0  0  0
   -4.0516    9.1897  -21.5269 C   0  0  0  0  0  0  0  0  0  0  0  0
   -5.3170    9.5635  -21.1822 C   0  0  0  0  0  0  0  0  0  0  0  0
   -1.7332   10.1778  -21.2437 C   0  0  0  0  0  0  0  0  0  0  0  0
   -1.4016    7.3061  -18.2325 C   0  0  0  0  0  0  0  0  0  0  0  0
   -3.6204    6.7088  -21.7742 C   0  0  0  0  0  0  0  0  0  0  0  0
   -3.5949    8.0012  -22.2287 C   0  0  0  0  0  0  0  0  0  0  0  0
   -2.7543    6.6481  -23.7546 C   0  0  0  0  0  0  0  0  0  0  0  0
   -2.9457    4.4141  -22.6048 C   0  0  0  0  0  0  0  0  0  0  0  0
   -3.2162   10.2162  -21.0581 C   0  0  0  0  0  0  0  0  0  0  0  0
   -1.8418    6.8850  -16.9955 C   0  0  0  0  0  0  0  0  0  0  0  0
   -6.5596    8.8286  -21.4496 C   0  0  0  0  0  0  0  0  0  0  0  0
   -3.0496    6.2439  -16.9335 C   0  0  0  0  0  0  0  0  0  0  0  0
   -5.3129    5.5875  -20.3699 C   0  0  0  0  0  0  0  0  0  0  0  0
   -1.1226    7.0840  -15.8594 F   0  0  0  0  0  0  0  0  0  0  0  0
   -3.0501    7.9415  -23.4685 N   0  0  0  0  0  0  0  0  0  0  0  0
   -3.1010    5.8740  -22.7157 N   0  0  0  0  0  0  0  0  0  0  0  0
   -5.2116   10.7362  -20.5522 N   0  0  0  0  0  0  0  0  0  0  0  0
   -4.9779    5.4019  -18.0316 N   0  0  0  0  0  0  0  0  0  0  0  0
   -3.9639   11.0972  -20.4933 O   0  0  0  0  0  0  0  0  0  0  0  0
  2  1  2  0
  1  9  1  0
  2  3  1  0
  5  2  1  0
  3 17  2  0
  3 23  1  0
 18  4  1  0
  4 23  2  0
 10  5  1  0
  5 18  2  0
  6  7  1  0
 11  6  1  0
  6 14  2  0
  7 16  1  0
  7 22  2  0
 14  8  1  0
  9 15  2  0
 10 11  2  0
 10 21  1  0
 11 20  1  0
 20 12  2  0
 12 21  1  0
 21 13  1  0
 14 24  1  0
 15 17  1  0
 15 19  1  0
 22 24  1  0
M  END
$$$$
