
     RDKit          3D

 24 27  0  0  0  0  0  0  0  0999 V2000
   -3.2635    5.8797  -19.2156 C   0  0  0  0  0  0  0  0  0  0  0  0
   -3.7322    7.1553  -19.4387 C   0  0  0  0  0  0  0  0  0  0  0  0
   -4.1689    7.8672  -18.3320 C   0  0  0  0  0  0  0  0  0  0  0  0
   -4.6743    9.6520  -19.7389 C   0  0  0  0  0  0  0  0  0  0  0  0
   -3.7696    7.7077  -20.7148 C   0  0  0  0  0  0  0  0  0  0  0  0
   -5.4389    5.7957  -22.5521 C   0  0  0  0  0  0  0  0  0  0  0  0
   -6.5212    6.5409  -22.9168 C   0  0  0  0  0  0  0  0  0  0  0  0
   -5.0845    3.5165  -21.4979 C   0  0  0  0  0  0  0  0  0  0  0  0
   -3.2306    5.3387  -17.9527 C   0  0  0  0  0  0  0  0  0  0  0  0
   -3.2895    6.9372  -21.8597 C   0  0  0  0  0  0  0  0  0  0  0  0
   -4.0221    6.1027  -22.6625 C   0  0  0  0  0  0  0  0  0  0  0  0
   -1.9256    6.1587  -23.3461 C   0  0  0  0  0  0  0  0  0  0  0  0
   -0.8999    7.7563  -21.6893 C   0  0  0  0  0  0  0  0  0  0  0  0
   -5.9639    4.6081  -22.0177 C   0  0  0  0  0  0  0  0  0  0  0  0
   -3.6635    6.0448  -16.8503 C   0  0  0  0  0  0  0  0  0  0  0  0
   -6.5098    7.8764  -23.5267 C   0  0  0  0  0  0  0  0  0  0  0  0
   -4.1333    7.3147  -17.0514 C   0  0  0  0  0  0  0  0  0  0  0  0
   -4.2510    8.9830  -20.8678 C   0  0  0  0  0  0  0  0  0  0  0  0
   -3.6384    5.5238  -15.5951 F   0  0  0  0  0  0  0  0  0  0  0  0
   -3.1508    5.6261  -23.5851 N   0  0  0  0  0  0  0  0  0  0  0  0
   -1.9960    6.9722  -22.2820 N   0  0  0  0  0  0  0  0  0  0  0  0
   -7.6030    5.8212  -22.6090 N   0  0  0  0  0  0  0  0  0  0  0  0
   -4.6284    9.1027  -18.5316 N   0  0  0  0  0  0  0  0  0  0  0  0
   -7.2459    4.6879  -22.0810 O   0  0  0  0  0  0  0  0  0  0  0  0
  2  1  2  0
  1  9  1  0
  2  3  1  0
  5  2  1  0
  3 17  2  0
  3 23  1  0
 18  4  1  0
  4 23  2  0
 10  5  1  0
  5 18  2  0
  6  7  1  0
 11  6  1  0
  6 14  2  0
  7 16  1  0
  7 22  2  0
 14  8  1  0
  9 15  2  0
 10 11  2  0
 10 21  1  0
 11 20  1  0
 20 12  2  0
 12 21  1  0
 21 13  1  0
 14 24  1  0
 15 17  1  0
 15 19  1  0
 22 24  1  0
M  END
$$$$
