
     RDKit          3D

 24 27  0  0  0  0  0  0  0  0999 V2000
   -3.3387    6.2908  -18.9514 C   0  0  0  0  0  0  0  0  0  0  0  0
   -4.4081    7.1178  -19.2233 C   0  0  0  0  0  0  0  0  0  0  0  0
   -5.2999    7.4077  -18.1827 C   0  0  0  0  0  0  0  0  0  0  0  0
   -6.5612    8.7379  -19.6484 C   0  0  0  0  0  0  0  0  0  0  0  0
   -4.5989    7.6439  -20.4805 C   0  0  0  0  0  0  0  0  0  0  0  0
   -4.9581    5.3589  -22.4864 C   0  0  0  0  0  0  0  0  0  0  0  0
   -6.2447    5.5731  -22.9243 C   0  0  0  0  0  0  0  0  0  0  0  0
   -3.6563    3.3848  -21.4961 C   0  0  0  0  0  0  0  0  0  0  0  0
   -3.1055    5.7371  -17.7066 C   0  0  0  0  0  0  0  0  0  0  0  0
   -3.6769    7.3605  -21.5700 C   0  0  0  0  0  0  0  0  0  0  0  0
   -3.8618    6.3167  -22.4669 C   0  0  0  0  0  0  0  0  0  0  0  0
   -2.0317    7.4206  -22.9505 C   0  0  0  0  0  0  0  0  0  0  0  0
   -2.0190    9.1850  -21.1847 C   0  0  0  0  0  0  0  0  0  0  0  0
   -4.8849    4.0402  -22.0549 C   0  0  0  0  0  0  0  0  0  0  0  0
   -3.9865    6.0262  -16.6860 C   0  0  0  0  0  0  0  0  0  0  0  0
   -6.8625    6.7971  -23.4821 C   0  0  0  0  0  0  0  0  0  0  0  0
   -5.0542    6.8512  -16.9565 C   0  0  0  0  0  0  0  0  0  0  0  0
   -5.6899    8.4598  -20.6805 C   0  0  0  0  0  0  0  0  0  0  0  0
   -3.7831    5.4977  -15.4581 F   0  0  0  0  0  0  0  0  0  0  0  0
   -2.8131    6.3869  -23.3140 N   0  0  0  0  0  0  0  0  0  0  0  0
   -2.5533    8.0308  -21.8755 N   0  0  0  0  0  0  0  0  0  0  0  0
   -6.8763    4.4061  -22.7436 N   0  0  0  0  0  0  0  0  0  0  0  0
   -6.3494    8.2105  -18.4321 N   0  0  0  0  0  0  0  0  0  0  0  0
   -6.0626    3.5332  -22.2372 O   0  0  0  0  0  0  0  0  0  0  0  0
  2  1  2  0
  1  9  1  0
  2  3  1  0
  5  2  1  0
  3 17  2  0
  3 23  1  0
 18  4  1  0
  4 23  2  0
 10  5  1  0
  5 18  2  0
  6  7  1  0
 11  6  1  0
  6 14  2  0
 16  7  1  6
  7 22  2  0
  8 14  1  6
  9 15  2  0
 10 11  2  0
 10 21  1  0
 11 20  1  0
 20 12  2  0
 12 21  1  0
 13 21  1  6
 14 24  1  0
 15 17  1  0
 15 19  1  0
 22 24  1  0
M  END
$$$$
