
     RDKit          3D

 24 27  0  0  0  0  0  0  0  0999 V2000
   -5.3059    8.2311  -20.5321 C   0  0  0  0  0  0  0  0  0  0  0  0
   -4.0693    7.6686  -20.2961 C   0  0  0  0  0  0  0  0  0  0  0  0
   -3.7745    7.2444  -18.9940 C   0  0  0  0  0  0  0  0  0  0  0  0
   -1.6523    6.5462  -19.7131 C   0  0  0  0  0  0  0  0  0  0  0  0
   -3.1469    7.5277  -21.3076 C   0  0  0  0  0  0  0  0  0  0  0  0
   -5.2519    6.2175  -23.1037 C   0  0  0  0  0  0  0  0  0  0  0  0
   -6.6268    6.1937  -23.0577 C   0  0  0  0  0  0  0  0  0  0  0  0
   -3.3668    4.5390  -22.6549 C   0  0  0  0  0  0  0  0  0  0  0  0
   -6.2643    8.3954  -19.5498 C   0  0  0  0  0  0  0  0  0  0  0  0
   -3.4406    7.9542  -22.6675 C   0  0  0  0  0  0  0  0  0  0  0  0
   -4.4005    7.3425  -23.4628 C   0  0  0  0  0  0  0  0  0  0  0  0
   -3.4483    8.9896  -24.5500 C   0  0  0  0  0  0  0  0  0  0  0  0
   -1.8241    9.8454  -22.8586 C   0  0  0  0  0  0  0  0  0  0  0  0
   -4.8064    4.9531  -22.7383 C   0  0  0  0  0  0  0  0  0  0  0  0
   -5.9688    7.9759  -18.2701 C   0  0  0  0  0  0  0  0  0  0  0  0
   -7.6016    7.2686  -23.3502 C   0  0  0  0  0  0  0  0  0  0  0  0
   -4.7347    7.4146  -18.0334 C   0  0  0  0  0  0  0  0  0  0  0  0
   -1.9312    6.9597  -20.9987 C   0  0  0  0  0  0  0  0  0  0  0  0
   -6.8875    8.1249  -17.2892 F   0  0  0  0  0  0  0  0  0  0  0  0
   -4.3755    8.0175  -24.6315 N   0  0  0  0  0  0  0  0  0  0  0  0
   -2.8637    8.9624  -23.3428 N   0  0  0  0  0  0  0  0  0  0  0  0
   -6.9443    4.9496  -22.6772 N   0  0  0  0  0  0  0  0  0  0  0  0
   -2.5719    6.6961  -18.7466 N   0  0  0  0  0  0  0  0  0  0  0  0
   -5.8675    4.2502  -22.4986 O   0  0  0  0  0  0  0  0  0  0  0  0
  2  1  2  0
  1  9  1  0
  2  3  1  0
  5  2  1  0
  3 17  2  0
  3 23  1  0
 18  4  1  0
  4 23  2  0
 10  5  1  0
  5 18  2  0
  6  7  1  0
 11  6  1  0
  6 14  2  0
 16  7  1  6
  7 22  2  0
  8 14  1  6
  9 15  2  0
 10 11  2  0
 10 21  1  0
 11 20  1  0
 20 12  2  0
 12 21  1  0
 13 21  1  6
 14 24  1  0
 15 17  1  0
 15 19  1  0
 22 24  1  0
M  END
$$$$
