
     RDKit          3D

 24 27  0  0  0  0  0  0  0  0999 V2000
   -5.8281    8.2581  -20.5533 C   0  0  0  0  0  0  0  0  0  0  0  0
   -5.3353    6.9976  -20.8171 C   0  0  0  0  0  0  0  0  0  0  0  0
   -5.9778    5.9009  -20.2283 C   0  0  0  0  0  0  0  0  0  0  0  0
   -4.4437    4.4588  -21.2651 C   0  0  0  0  0  0  0  0  0  0  0  0
   -4.2422    6.8175  -21.6334 C   0  0  0  0  0  0  0  0  0  0  0  0
   -1.9340    8.3699  -20.3544 C   0  0  0  0  0  0  0  0  0  0  0  0
   -2.3886    8.8039  -19.1304 C   0  0  0  0  0  0  0  0  0  0  0  0
    0.0341    6.9555  -21.1900 C   0  0  0  0  0  0  0  0  0  0  0  0
   -6.9211    8.4901  -19.7396 C   0  0  0  0  0  0  0  0  0  0  0  0
   -3.5691    7.9450  -22.2605 C   0  0  0  0  0  0  0  0  0  0  0  0
   -2.5242    8.6336  -21.6588 C   0  0  0  0  0  0  0  0  0  0  0  0
   -2.9657    9.4887  -23.6275 C   0  0  0  0  0  0  0  0  0  0  0  0
   -4.8419    8.0370  -24.4047 C   0  0  0  0  0  0  0  0  0  0  0  0
   -0.7871    7.6200  -20.1246 C   0  0  0  0  0  0  0  0  0  0  0  0
   -7.5497    7.4069  -19.1629 C   0  0  0  0  0  0  0  0  0  0  0  0
   -3.5679    9.6354  -18.8001 C   0  0  0  0  0  0  0  0  0  0  0  0
   -7.0584    6.1484  -19.4254 C   0  0  0  0  0  0  0  0  0  0  0  0
   -3.8032    5.5306  -21.8505 C   0  0  0  0  0  0  0  0  0  0  0  0
   -8.6210    7.6046  -18.3618 F   0  0  0  0  0  0  0  0  0  0  0  0
   -2.1743    9.5910  -22.5438 N   0  0  0  0  0  0  0  0  0  0  0  0
   -3.8312    8.4763  -23.4664 N   0  0  0  0  0  0  0  0  0  0  0  0
   -1.5204    8.3108  -18.2380 N   0  0  0  0  0  0  0  0  0  0  0  0
   -5.5081    4.6650  -20.4734 N   0  0  0  0  0  0  0  0  0  0  0  0
   -0.6001    7.6270  -18.8431 O   0  0  0  0  0  0  0  0  0  0  0  0
  2  1  2  0
  1  9  1  0
  2  3  1  0
  5  2  1  0
  3 17  2  0
  3 23  1  0
 18  4  1  0
  4 23  2  0
 10  5  1  0
  5 18  2  0
  6  7  1  0
 11  6  1  0
  6 14  2  0
 16  7  1  6
  7 22  2  0
  8 14  1  6
  9 15  2  0
 10 11  2  0
 10 21  1  0
 11 20  1  0
 20 12  2  0
 12 21  1  0
 13 21  1  6
 14 24  1  0
 15 17  1  0
 15 19  1  0
 22 24  1  0
M  END
$$$$
