
     RDKit          3D

 24 27  0  0  0  0  0  0  0  0999 V2000
   -3.4700    8.6754  -19.2993 C   0  0  0  0  0  0  0  0  0  0  0  0
   -2.7016    7.7292  -19.9403 C   0  0  0  0  0  0  0  0  0  0  0  0
   -1.9725    6.8636  -19.1395 C   0  0  0  0  0  0  0  0  0  0  0  0
   -1.1594    5.8414  -21.0666 C   0  0  0  0  0  0  0  0  0  0  0  0
   -2.6544    7.6436  -21.3279 C   0  0  0  0  0  0  0  0  0  0  0  0
   -5.6766    7.3697  -22.1084 C   0  0  0  0  0  0  0  0  0  0  0  0
   -6.5122    7.2747  -21.0348 C   0  0  0  0  0  0  0  0  0  0  0  0
   -5.1091    5.8983  -24.0945 C   0  0  0  0  0  0  0  0  0  0  0  0
   -3.5111    8.7563  -17.9280 C   0  0  0  0  0  0  0  0  0  0  0  0
   -3.4450    8.5616  -22.1447 C   0  0  0  0  0  0  0  0  0  0  0  0
   -4.7671    8.4402  -22.4834 C   0  0  0  0  0  0  0  0  0  0  0  0
   -3.9326   10.2884  -23.3513 C   0  0  0  0  0  0  0  0  0  0  0  0
   -1.5496   10.1937  -22.5378 C   0  0  0  0  0  0  0  0  0  0  0  0
   -5.8583    6.1801  -22.8318 C   0  0  0  0  0  0  0  0  0  0  0  0
   -2.7877    7.8962  -17.1292 C   0  0  0  0  0  0  0  0  0  0  0  0
   -6.6950    8.2653  -19.9667 C   0  0  0  0  0  0  0  0  0  0  0  0
   -2.0175    6.9485  -17.7476 C   0  0  0  0  0  0  0  0  0  0  0  0
   -1.8665    6.6791  -21.9029 C   0  0  0  0  0  0  0  0  0  0  0  0
   -2.8169    7.9637  -15.7719 F   0  0  0  0  0  0  0  0  0  0  0  0
   -5.0522    9.5296  -23.2380 N   0  0  0  0  0  0  0  0  0  0  0  0
   -2.9303    9.7025  -22.6798 N   0  0  0  0  0  0  0  0  0  0  0  0
   -7.1362    6.0987  -21.1381 N   0  0  0  0  0  0  0  0  0  0  0  0
   -1.2213    5.9436  -19.7449 N   0  0  0  0  0  0  0  0  0  0  0  0
   -6.7323    5.4748  -22.2050 O   0  0  0  0  0  0  0  0  0  0  0  0
  2  1  2  0
  1  9  1  0
  2  3  1  0
  5  2  1  0
  3 17  2  0
  3 23  1  0
 18  4  1  0
  4 23  2  0
 10  5  1  0
  5 18  2  0
  6  7  1  0
 11  6  1  0
  6 14  2  0
  7 16  1  0
  7 22  2  0
 14  8  1  0
  9 15  2  0
 10 11  2  0
 10 21  1  0
 11 20  1  0
 20 12  2  0
 12 21  1  0
 21 13  1  0
 14 24  1  0
 15 17  1  0
 15 19  1  0
 22 24  1  0
M  END
$$$$
