
     RDKit          3D

 24 27  0  0  0  0  0  0  0  0999 V2000
   -4.0757   23.5188  -14.2207 C   0  0  0  0  0  0  0  0  0  0  0  0
   -3.2750   24.5633  -14.6262 C   0  0  0  0  0  0  0  0  0  0  0  0
   -3.6112   25.1876  -15.8176 C   0  0  0  0  0  0  0  0  0  0  0  0
   -1.7912   26.6107  -15.5305 C   0  0  0  0  0  0  0  0  0  0  0  0
   -2.1766   24.9753  -13.8787 C   0  0  0  0  0  0  0  0  0  0  0  0
   -3.6734   25.2601  -11.1408 C   0  0  0  0  0  0  0  0  0  0  0  0
   -3.8277   26.6100  -11.2588 C   0  0  0  0  0  0  0  0  0  0  0  0
   -5.1436   23.3291  -10.4051 C   0  0  0  0  0  0  0  0  0  0  0  0
   -5.1586   23.1151  -14.9645 C   0  0  0  0  0  0  0  0  0  0  0  0
   -1.8558   24.3061  -12.6201 C   0  0  0  0  0  0  0  0  0  0  0  0
   -2.5130   24.4314  -11.4243 C   0  0  0  0  0  0  0  0  0  0  0  0
   -0.8336   23.0163  -11.2175 C   0  0  0  0  0  0  0  0  0  0  0  0
    0.1189   23.0233  -13.5504 C   0  0  0  0  0  0  0  0  0  0  0  0
   -4.9057   24.7816  -10.6677 C   0  0  0  0  0  0  0  0  0  0  0  0
   -5.4956   23.7347  -16.1493 C   0  0  0  0  0  0  0  0  0  0  0  0
   -2.8223   27.5780  -11.7144 C   0  0  0  0  0  0  0  0  0  0  0  0
   -4.7117   24.7752  -16.5695 C   0  0  0  0  0  0  0  0  0  0  0  0
   -1.4188   26.0212  -14.3409 C   0  0  0  0  0  0  0  0  0  0  0  0
   -6.5627   23.3469  -16.8968 F   0  0  0  0  0  0  0  0  0  0  0  0
   -1.8581   23.6172  -10.5607 N   0  0  0  0  0  0  0  0  0  0  0  0
   -0.8199   23.4323  -12.4925 N   0  0  0  0  0  0  0  0  0  0  0  0
   -5.0764   26.8876  -10.8756 N   0  0  0  0  0  0  0  0  0  0  0  0
   -2.8442   26.1989  -16.2254 N   0  0  0  0  0  0  0  0  0  0  0  0
   -5.6885   25.7930  -10.5326 O   0  0  0  0  0  0  0  0  0  0  0  0
  2  1  2  0
  1  9  1  0
  2  3  1  0
  5  2  1  0
  3 17  2  0
  3 23  1  0
 18  4  1  0
  4 23  2  0
 10  5  1  0
  5 18  2  0
  6  7  1  0
 11  6  1  0
  6 14  2  0
  7 16  1  0
  7 22  2  0
 14  8  1  0
  9 15  2  0
 10 11  2  0
 10 21  1  0
 11 20  1  0
 20 12  2  0
 12 21  1  0
 21 13  1  0
 14 24  1  0
 15 17  1  0
 15 19  1  0
 22 24  1  0
M  END
$$$$
