
     RDKit          3D

 24 27  0  0  0  0  0  0  0  0999 V2000
   -3.7107    8.2885  -20.7937 C   0  0  0  0  0  0  0  0  0  0  0  0
   -4.2684    7.2308  -20.1105 C   0  0  0  0  0  0  0  0  0  0  0  0
   -4.5445    7.4262  -18.7659 C   0  0  0  0  0  0  0  0  0  0  0  0
   -5.3526    5.2452  -18.6637 C   0  0  0  0  0  0  0  0  0  0  0  0
   -4.5422    6.0191  -20.7363 C   0  0  0  0  0  0  0  0  0  0  0  0
   -6.2613    7.0171  -23.1584 C   0  0  0  0  0  0  0  0  0  0  0  0
   -6.5254    8.3188  -23.4675 C   0  0  0  0  0  0  0  0  0  0  0  0
   -7.6193    5.0453  -22.3220 C   0  0  0  0  0  0  0  0  0  0  0  0
   -3.4408    9.4828  -20.1694 C   0  0  0  0  0  0  0  0  0  0  0  0
   -4.2524    5.8483  -22.1582 C   0  0  0  0  0  0  0  0  0  0  0  0
   -5.0053    6.2871  -23.2156 C   0  0  0  0  0  0  0  0  0  0  0  0
   -3.2032    5.2497  -23.9517 C   0  0  0  0  0  0  0  0  0  0  0  0
   -2.0785    4.6031  -21.7914 C   0  0  0  0  0  0  0  0  0  0  0  0
   -7.4888    6.4722  -22.7490 C   0  0  0  0  0  0  0  0  0  0  0  0
   -3.7151    9.6800  -18.8326 C   0  0  0  0  0  0  0  0  0  0  0  0
   -5.5694    9.3251  -23.9463 C   0  0  0  0  0  0  0  0  0  0  0  0
   -4.2697    8.6403  -18.1360 C   0  0  0  0  0  0  0  0  0  0  0  0
   -5.0959    5.0049  -19.9970 C   0  0  0  0  0  0  0  0  0  0  0  0
   -3.4535   10.8546  -18.2004 F   0  0  0  0  0  0  0  0  0  0  0  0
   -4.3321    5.9025  -24.3276 N   0  0  0  0  0  0  0  0  0  0  0  0
   -3.1400    5.2088  -22.6126 N   0  0  0  0  0  0  0  0  0  0  0  0
   -7.8289    8.5077  -23.2480 N   0  0  0  0  0  0  0  0  0  0  0  0
   -5.0821    6.4108  -18.0897 N   0  0  0  0  0  0  0  0  0  0  0  0
   -8.3716    7.4043  -22.8254 O   0  0  0  0  0  0  0  0  0  0  0  0
  2  1  2  0
  1  9  1  0
  2  3  1  0
  5  2  1  0
  3 17  2  0
  3 23  1  0
 18  4  1  0
  4 23  2  0
 10  5  1  0
  5 18  2  0
  6  7  1  0
 11  6  1  0
  6 14  2  0
  7 16  1  0
  7 22  2  0
 14  8  1  0
  9 15  2  0
 10 11  2  0
 10 21  1  0
 11 20  1  0
 20 12  2  0
 12 21  1  0
 21 13  1  0
 14 24  1  0
 15 17  1  0
 15 19  1  0
 22 24  1  0
M  END
$$$$
