
     RDKit          3D

 24 27  0  0  0  0  0  0  0  0999 V2000
   -5.1107    6.2232  -19.2253 C   0  0  0  0  0  0  0  0  0  0  0  0
   -3.9060    6.7822  -19.5962 C   0  0  0  0  0  0  0  0  0  0  0  0
   -3.0899    7.3186  -18.5919 C   0  0  0  0  0  0  0  0  0  0  0  0
   -1.5041    7.9175  -20.2151 C   0  0  0  0  0  0  0  0  0  0  0  0
   -3.5134    6.8163  -20.9147 C   0  0  0  0  0  0  0  0  0  0  0  0
   -5.3681    8.4685  -22.7047 C   0  0  0  0  0  0  0  0  0  0  0  0
   -4.6836    9.4308  -23.4108 C   0  0  0  0  0  0  0  0  0  0  0  0
   -7.2504    8.4539  -20.9642 C   0  0  0  0  0  0  0  0  0  0  0  0
   -5.5493    6.1667  -17.9157 C   0  0  0  0  0  0  0  0  0  0  0  0
   -4.3447    6.2552  -21.9690 C   0  0  0  0  0  0  0  0  0  0  0  0
   -5.1789    7.0264  -22.7675 C   0  0  0  0  0  0  0  0  0  0  0  0
   -5.3143    4.9158  -23.3409 C   0  0  0  0  0  0  0  0  0  0  0  0
   -3.7185    3.8504  -21.7441 C   0  0  0  0  0  0  0  0  0  0  0  0
   -6.2916    9.1267  -21.9019 C   0  0  0  0  0  0  0  0  0  0  0  0
   -4.7418    6.6960  -16.9314 C   0  0  0  0  0  0  0  0  0  0  0  0
   -3.5954    9.2810  -24.4030 C   0  0  0  0  0  0  0  0  0  0  0  0
   -3.5394    7.2544  -17.3007 C   0  0  0  0  0  0  0  0  0  0  0  0
   -2.2988    7.3925  -21.2123 C   0  0  0  0  0  0  0  0  0  0  0  0
   -5.1462    6.6549  -15.6417 F   0  0  0  0  0  0  0  0  0  0  0  0
   -5.7678    6.1535  -23.6122 N   0  0  0  0  0  0  0  0  0  0  0  0
   -4.4347    4.9639  -22.3290 N   0  0  0  0  0  0  0  0  0  0  0  0
   -5.2090   10.5974  -23.0151 N   0  0  0  0  0  0  0  0  0  0  0  0
   -1.9130    7.8697  -18.9373 N   0  0  0  0  0  0  0  0  0  0  0  0
   -6.1412   10.3912  -22.1381 O   0  0  0  0  0  0  0  0  0  0  0  0
  2  1  2  0
  1  9  1  0
  2  3  1  0
  5  2  1  0
  3 17  2  0
  3 23  1  0
 18  4  1  0
  4 23  2  0
 10  5  1  0
  5 18  2  0
  6  7  1  0
 11  6  1  0
  6 14  2  0
 16  7  1  6
  7 22  2  0
  8 14  1  6
  9 15  2  0
 10 11  2  0
 10 21  1  0
 11 20  1  0
 20 12  2  0
 12 21  1  0
 13 21  1  6
 14 24  1  0
 15 17  1  0
 15 19  1  0
 22 24  1  0
M  END
$$$$
