
     RDKit          3D

 24 27  0  0  0  0  0  0  0  0999 V2000
   -3.2793    5.8581  -18.8482 C   0  0  0  0  0  0  0  0  0  0  0  0
   -2.6177    6.9010  -19.4576 C   0  0  0  0  0  0  0  0  0  0  0  0
   -1.7895    7.6733  -18.6577 C   0  0  0  0  0  0  0  0  0  0  0  0
   -1.2744    8.9677  -20.5230 C   0  0  0  0  0  0  0  0  0  0  0  0
   -2.7720    7.1721  -20.8132 C   0  0  0  0  0  0  0  0  0  0  0  0
   -5.6795    7.8237  -21.7825 C   0  0  0  0  0  0  0  0  0  0  0  0
   -5.9715    8.8741  -22.6017 C   0  0  0  0  0  0  0  0  0  0  0  0
   -6.1929    7.2095  -19.3760 C   0  0  0  0  0  0  0  0  0  0  0  0
   -3.1242    5.5962  -17.5080 C   0  0  0  0  0  0  0  0  0  0  0  0
   -3.6416    6.3314  -21.6329 C   0  0  0  0  0  0  0  0  0  0  0  0
   -4.9124    6.6195  -22.0567 C   0  0  0  0  0  0  0  0  0  0  0  0
   -4.2973    4.6389  -22.8082 C   0  0  0  0  0  0  0  0  0  0  0  0
   -1.9672    4.4469  -21.8683 C   0  0  0  0  0  0  0  0  0  0  0  0
   -6.2849    8.1275  -20.5525 C   0  0  0  0  0  0  0  0  0  0  0  0
   -2.3006    6.3623  -16.7104 C   0  0  0  0  0  0  0  0  0  0  0  0
   -5.5643    9.0425  -24.0022 C   0  0  0  0  0  0  0  0  0  0  0  0
   -1.6342    7.4038  -17.2977 C   0  0  0  0  0  0  0  0  0  0  0  0
   -2.0857    8.2280  -21.3571 C   0  0  0  0  0  0  0  0  0  0  0  0
   -2.1372    6.1169  -15.3835 F   0  0  0  0  0  0  0  0  0  0  0  0
   -5.3044    5.5486  -22.7896 N   0  0  0  0  0  0  0  0  0  0  0  0
   -3.2619    5.1096  -22.0973 N   0  0  0  0  0  0  0  0  0  0  0  0
   -6.7021    9.7294  -21.8821 N   0  0  0  0  0  0  0  0  0  0  0  0
   -1.1440    8.6886  -19.2321 N   0  0  0  0  0  0  0  0  0  0  0  0
   -6.8713    9.2650  -20.6794 O   0  0  0  0  0  0  0  0  0  0  0  0
  2  1  2  0
  1  9  1  0
  2  3  1  0
  5  2  1  0
  3 17  2  0
  3 23  1  0
 18  4  1  0
  4 23  2  0
 10  5  1  0
  5 18  2  0
  6  7  1  0
 11  6  1  0
  6 14  2  0
  7 16  1  0
  7 22  2  0
 14  8  1  0
  9 15  2  0
 10 11  2  0
 10 21  1  0
 11 20  1  0
 20 12  2  0
 12 21  1  0
 21 13  1  0
 14 24  1  0
 15 17  1  0
 15 19  1  0
 22 24  1  0
M  END
$$$$
