
     RDKit          3D

 24 27  0  0  0  0  0  0  0  0999 V2000
   -2.8014    7.1158  -19.5091 C   0  0  0  0  0  0  0  0  0  0  0  0
   -4.1164    6.7024  -19.4761 C   0  0  0  0  0  0  0  0  0  0  0  0
   -4.7602    6.6475  -18.2331 C   0  0  0  0  0  0  0  0  0  0  0  0
   -6.7153    5.8944  -19.2910 C   0  0  0  0  0  0  0  0  0  0  0  0
   -4.7808    6.3507  -20.6287 C   0  0  0  0  0  0  0  0  0  0  0  0
   -3.9453    8.9501  -22.0138 C   0  0  0  0  0  0  0  0  0  0  0  0
   -2.9653    9.8546  -21.6758 C   0  0  0  0  0  0  0  0  0  0  0  0
   -6.5087    8.9210  -21.9922 C   0  0  0  0  0  0  0  0  0  0  0  0
   -2.0914    7.4774  -18.3796 C   0  0  0  0  0  0  0  0  0  0  0  0
   -4.1298    6.4111  -21.9287 C   0  0  0  0  0  0  0  0  0  0  0  0
   -3.7611    7.6039  -22.5366 C   0  0  0  0  0  0  0  0  0  0  0  0
   -3.2164    5.9025  -23.8056 C   0  0  0  0  0  0  0  0  0  0  0  0
   -3.9997    3.9708  -22.4322 C   0  0  0  0  0  0  0  0  0  0  0  0
   -5.1696    9.5574  -21.7629 C   0  0  0  0  0  0  0  0  0  0  0  0
   -2.7303    7.4217  -17.1591 C   0  0  0  0  0  0  0  0  0  0  0  0
   -1.4924    9.7230  -21.7442 C   0  0  0  0  0  0  0  0  0  0  0  0
   -4.0427    7.0089  -17.1250 C   0  0  0  0  0  0  0  0  0  0  0  0
   -6.0921    5.9447  -20.5201 C   0  0  0  0  0  0  0  0  0  0  0  0
   -2.0597    7.7692  -16.0374 F   0  0  0  0  0  0  0  0  0  0  0  0
   -3.1937    7.2445  -23.7076 N   0  0  0  0  0  0  0  0  0  0  0  0
   -3.7911    5.3750  -22.7141 N   0  0  0  0  0  0  0  0  0  0  0  0
   -3.6217   10.9403  -21.2471 N   0  0  0  0  0  0  0  0  0  0  0  0
   -6.0419    6.2439  -18.1834 N   0  0  0  0  0  0  0  0  0  0  0  0
   -4.9011   10.7401  -21.3083 O   0  0  0  0  0  0  0  0  0  0  0  0
  2  1  2  0
  1  9  1  0
  2  3  1  0
  5  2  1  0
  3 17  2  0
  3 23  1  0
 18  4  1  0
  4 23  2  0
 10  5  1  0
  5 18  2  0
  6  7  1  0
 11  6  1  0
  6 14  2  0
 16  7  1  6
  7 22  2  0
  8 14  1  6
  9 15  2  0
 10 11  2  0
 10 21  1  0
 11 20  1  0
 20 12  2  0
 12 21  1  0
 13 21  1  6
 14 24  1  0
 15 17  1  0
 15 19  1  0
 22 24  1  0
M  END
$$$$
