
     RDKit          3D

 24 27  0  0  0  0  0  0  0  0999 V2000
   -3.8787    6.0910  -19.8408 C   0  0  0  0  0  0  0  0  0  0  0  0
   -4.3628    7.3751  -19.9747 C   0  0  0  0  0  0  0  0  0  0  0  0
   -4.3703    8.1994  -18.8421 C   0  0  0  0  0  0  0  0  0  0  0  0
   -5.3023    9.9318  -20.1220 C   0  0  0  0  0  0  0  0  0  0  0  0
   -4.8283    7.8374  -21.1843 C   0  0  0  0  0  0  0  0  0  0  0  0
   -2.3393    7.2857  -22.8796 C   0  0  0  0  0  0  0  0  0  0  0  0
   -1.2009    6.5654  -22.5999 C   0  0  0  0  0  0  0  0  0  0  0  0
   -2.9269    9.7665  -23.1491 C   0  0  0  0  0  0  0  0  0  0  0  0
   -3.4023    5.5806  -18.6479 C   0  0  0  0  0  0  0  0  0  0  0  0
   -4.8187    6.9976  -22.3727 C   0  0  0  0  0  0  0  0  0  0  0  0
   -3.6757    6.7633  -23.1255 C   0  0  0  0  0  0  0  0  0  0  0  0
   -5.3860    5.6976  -23.9863 C   0  0  0  0  0  0  0  0  0  0  0  0
   -7.2207    6.3234  -22.4135 C   0  0  0  0  0  0  0  0  0  0  0  0
   -1.9846    8.6291  -22.8857 C   0  0  0  0  0  0  0  0  0  0  0  0
   -3.4119    6.3965  -17.5364 C   0  0  0  0  0  0  0  0  0  0  0  0
   -1.0147    5.1024  -22.4729 C   0  0  0  0  0  0  0  0  0  0  0  0
   -3.8951    7.6782  -17.6690 C   0  0  0  0  0  0  0  0  0  0  0  0
   -5.2996    9.1298  -21.2439 C   0  0  0  0  0  0  0  0  0  0  0  0
   -2.9523    5.9231  -16.3560 F   0  0  0  0  0  0  0  0  0  0  0  0
   -4.0707    5.9467  -24.1253 N   0  0  0  0  0  0  0  0  0  0  0  0
   -5.8605    6.3396  -22.9081 N   0  0  0  0  0  0  0  0  0  0  0  0
   -0.2336    7.4798  -22.4532 N   0  0  0  0  0  0  0  0  0  0  0  0
   -4.8415    9.4536  -18.9553 N   0  0  0  0  0  0  0  0  0  0  0  0
   -0.7167    8.6705  -22.6245 O   0  0  0  0  0  0  0  0  0  0  0  0
  2  1  2  0
  1  9  1  0
  2  3  1  0
  5  2  1  0
  3 17  2  0
  3 23  1  0
 18  4  1  0
  4 23  2  0
 10  5  1  0
  5 18  2  0
  6  7  1  0
 11  6  1  0
  6 14  2  0
 16  7  1  6
  7 22  2  0
  8 14  1  6
  9 15  2  0
 10 11  2  0
 10 21  1  0
 11 20  1  0
 20 12  2  0
 12 21  1  0
 13 21  1  6
 14 24  1  0
 15 17  1  0
 15 19  1  0
 22 24  1  0
M  END
$$$$
