
     RDKit          3D

 24 27  0  0  0  0  0  0  0  0999 V2000
   -3.4655    6.3680  -19.7185 C   0  0  0  0  0  0  0  0  0  0  0  0
   -4.1290    7.5203  -20.0835 C   0  0  0  0  0  0  0  0  0  0  0  0
   -4.7516    8.2706  -19.0776 C   0  0  0  0  0  0  0  0  0  0  0  0
   -5.4740    9.8145  -20.6910 C   0  0  0  0  0  0  0  0  0  0  0  0
   -4.1824    7.9246  -21.3978 C   0  0  0  0  0  0  0  0  0  0  0  0
   -5.4179    5.4764  -22.7592 C   0  0  0  0  0  0  0  0  0  0  0  0
   -6.6521    6.0216  -23.0285 C   0  0  0  0  0  0  0  0  0  0  0  0
   -4.5567    3.3188  -21.6751 C   0  0  0  0  0  0  0  0  0  0  0  0
   -3.3855    5.9200  -18.4133 C   0  0  0  0  0  0  0  0  0  0  0  0
   -3.5331    7.1621  -22.4536 C   0  0  0  0  0  0  0  0  0  0  0  0
   -4.1147    6.0539  -23.0551 C   0  0  0  0  0  0  0  0  0  0  0  0
   -2.1440    6.4478  -23.9287 C   0  0  0  0  0  0  0  0  0  0  0  0
   -1.4116    8.4611  -22.6475 C   0  0  0  0  0  0  0  0  0  0  0  0
   -5.6358    4.2514  -22.1407 C   0  0  0  0  0  0  0  0  0  0  0  0
   -3.9999    6.6626  -17.4274 C   0  0  0  0  0  0  0  0  0  0  0  0
   -6.9972    7.3082  -23.6742 C   0  0  0  0  0  0  0  0  0  0  0  0
   -4.6626    7.8128  -17.7908 C   0  0  0  0  0  0  0  0  0  0  0  0
   -4.8648    9.0844  -21.6897 C   0  0  0  0  0  0  0  0  0  0  0  0
   -3.9382    6.2476  -16.1419 F   0  0  0  0  0  0  0  0  0  0  0  0
   -3.2161    5.6352  -23.9713 N   0  0  0  0  0  0  0  0  0  0  0  0
   -2.3264    7.3952  -22.9965 N   0  0  0  0  0  0  0  0  0  0  0  0
   -7.5385    5.1268  -22.5736 N   0  0  0  0  0  0  0  0  0  0  0  0
   -5.4049    9.3957  -19.4174 N   0  0  0  0  0  0  0  0  0  0  0  0
   -6.9206    4.1081  -22.0628 O   0  0  0  0  0  0  0  0  0  0  0  0
  2  1  2  0
  1  9  1  0
  2  3  1  0
  5  2  1  0
  3 17  2  0
  3 23  1  0
 18  4  1  0
  4 23  2  0
 10  5  1  0
  5 18  2  0
  6  7  1  0
 11  6  1  0
  6 14  2  0
 16  7  1  6
  7 22  2  0
  8 14  1  6
  9 15  2  0
 10 11  2  0
 10 21  1  0
 11 20  1  0
 20 12  2  0
 12 21  1  0
 13 21  1  6
 14 24  1  0
 15 17  1  0
 15 19  1  0
 22 24  1  0
M  END
$$$$
