
     RDKit          3D

 24 27  0  0  0  0  0  0  0  0999 V2000
   -4.9089    5.9847  -19.8575 C   0  0  0  0  0  0  0  0  0  0  0  0
   -5.0307    7.3574  -19.9038 C   0  0  0  0  0  0  0  0  0  0  0  0
   -5.1097    8.0546  -18.6914 C   0  0  0  0  0  0  0  0  0  0  0  0
   -5.2786   10.0738  -19.8757 C   0  0  0  0  0  0  0  0  0  0  0  0
   -5.0760    8.0275  -21.1049 C   0  0  0  0  0  0  0  0  0  0  0  0
   -2.5112    6.7473  -22.1802 C   0  0  0  0  0  0  0  0  0  0  0  0
   -1.7886    5.6535  -21.7624 C   0  0  0  0  0  0  0  0  0  0  0  0
   -2.1913    9.2905  -22.1342 C   0  0  0  0  0  0  0  0  0  0  0  0
   -4.8607    5.2670  -18.6772 C   0  0  0  0  0  0  0  0  0  0  0  0
   -4.9857    7.3195  -22.3731 C   0  0  0  0  0  0  0  0  0  0  0  0
   -3.8093    6.7477  -22.8393 C   0  0  0  0  0  0  0  0  0  0  0  0
   -5.4365    6.4141  -24.2685 C   0  0  0  0  0  0  0  0  0  0  0  0
   -7.3523    7.5407  -23.1319 C   0  0  0  0  0  0  0  0  0  0  0  0
   -1.7709    7.8774  -21.8556 C   0  0  0  0  0  0  0  0  0  0  0  0
   -4.9387    5.9585  -17.4869 C   0  0  0  0  0  0  0  0  0  0  0  0
   -2.1128    4.2124  -21.8596 C   0  0  0  0  0  0  0  0  0  0  0  0
   -5.0606    7.3286  -17.5321 C   0  0  0  0  0  0  0  0  0  0  0  0
   -5.2015    9.3984  -21.0755 C   0  0  0  0  0  0  0  0  0  0  0  0
   -4.8947    5.2818  -16.3169 F   0  0  0  0  0  0  0  0  0  0  0  0
   -4.1315    6.1918  -24.0265 N   0  0  0  0  0  0  0  0  0  0  0  0
   -5.9764    7.1088  -23.2557 N   0  0  0  0  0  0  0  0  0  0  0  0
   -0.6730    6.1562  -21.2183 N   0  0  0  0  0  0  0  0  0  0  0  0
   -5.2315    9.3934  -18.7193 N   0  0  0  0  0  0  0  0  0  0  0  0
   -0.6889    7.4507  -21.2859 O   0  0  0  0  0  0  0  0  0  0  0  0
  2  1  2  0
  1  9  1  0
  2  3  1  0
  5  2  1  0
  3 17  2  0
  3 23  1  0
 18  4  1  0
  4 23  2  0
 10  5  1  0
  5 18  2  0
  6  7  1  0
 11  6  1  0
  6 14  2  0
 16  7  1  6
  7 22  2  0
  8 14  1  6
  9 15  2  0
 10 11  2  0
 10 21  1  0
 11 20  1  0
 20 12  2  0
 12 21  1  0
 13 21  1  6
 14 24  1  0
 15 17  1  0
 15 19  1  0
 22 24  1  0
M  END
$$$$
