
     RDKit          3D

 24 27  0  0  0  0  0  0  0  0999 V2000
   -3.6292    6.0633  -18.7172 C   0  0  0  0  0  0  0  0  0  0  0  0
   -4.5803    6.9825  -19.1069 C   0  0  0  0  0  0  0  0  0  0  0  0
   -5.5305    7.3904  -18.1619 C   0  0  0  0  0  0  0  0  0  0  0  0
   -6.5110    8.7924  -19.7686 C   0  0  0  0  0  0  0  0  0  0  0  0
   -4.6005    7.4860  -20.3874 C   0  0  0  0  0  0  0  0  0  0  0  0
   -5.2738    5.9708  -22.9612 C   0  0  0  0  0  0  0  0  0  0  0  0
   -6.0461    6.5226  -23.9572 C   0  0  0  0  0  0  0  0  0  0  0  0
   -5.5254    4.0385  -21.2952 C   0  0  0  0  0  0  0  0  0  0  0  0
   -3.5687    5.5278  -17.4443 C   0  0  0  0  0  0  0  0  0  0  0  0
   -3.6151    7.0802  -21.3783 C   0  0  0  0  0  0  0  0  0  0  0  0
   -3.9461    6.3925  -22.5383 C   0  0  0  0  0  0  0  0  0  0  0  0
   -1.7862    6.7533  -22.4573 C   0  0  0  0  0  0  0  0  0  0  0  0
   -1.5559    7.9857  -20.2986 C   0  0  0  0  0  0  0  0  0  0  0  0
   -5.9977    4.9179  -22.4153 C   0  0  0  0  0  0  0  0  0  0  0  0
   -4.5065    5.9331  -16.5183 C   0  0  0  0  0  0  0  0  0  0  0  0
   -5.7584    7.6646  -24.8541 C   0  0  0  0  0  0  0  0  0  0  0  0
   -5.4563    6.8504  -16.9064 C   0  0  0  0  0  0  0  0  0  0  0  0
   -5.5807    8.3987  -20.7073 C   0  0  0  0  0  0  0  0  0  0  0  0
   -4.4714    5.4251  -15.2656 F   0  0  0  0  0  0  0  0  0  0  0  0
   -2.7765    6.2063  -23.1862 N   0  0  0  0  0  0  0  0  0  0  0  0
   -2.2897    7.2968  -21.3388 N   0  0  0  0  0  0  0  0  0  0  0  0
   -7.1727    5.7988  -23.9702 N   0  0  0  0  0  0  0  0  0  0  0  0
   -6.4664    8.2844  -18.5267 N   0  0  0  0  0  0  0  0  0  0  0  0
   -7.1177    4.8732  -23.0641 O   0  0  0  0  0  0  0  0  0  0  0  0
  2  1  2  0
  1  9  1  0
  2  3  1  0
  5  2  1  0
  3 17  2  0
  3 23  1  0
 18  4  1  0
  4 23  2  0
 10  5  1  0
  5 18  2  0
  6  7  1  0
 11  6  1  0
  6 14  2  0
 16  7  1  6
  7 22  2  0
  8 14  1  6
  9 15  2  0
 10 11  2  0
 10 21  1  0
 11 20  1  0
 20 12  2  0
 12 21  1  0
 13 21  1  6
 14 24  1  0
 15 17  1  0
 15 19  1  0
 22 24  1  0
M  END
$$$$
