
     RDKit          3D

 24 27  0  0  0  0  0  0  0  0999 V2000
   -3.1774    6.3091  -19.1691 C   0  0  0  0  0  0  0  0  0  0  0  0
   -4.0747    7.3352  -19.3656 C   0  0  0  0  0  0  0  0  0  0  0  0
   -4.7207    7.8293  -18.2427 C   0  0  0  0  0  0  0  0  0  0  0  0
   -5.8518    9.3330  -19.6136 C   0  0  0  0  0  0  0  0  0  0  0  0
   -4.3261    7.8541  -20.6315 C   0  0  0  0  0  0  0  0  0  0  0  0
   -5.2041    5.4641  -22.4575 C   0  0  0  0  0  0  0  0  0  0  0  0
   -5.3311    4.1558  -22.0940 C   0  0  0  0  0  0  0  0  0  0  0  0
   -6.7999    7.3202  -23.1206 C   0  0  0  0  0  0  0  0  0  0  0  0
   -2.9345    5.7994  -17.9161 C   0  0  0  0  0  0  0  0  0  0  0  0
   -3.6192    7.3214  -21.7940 C   0  0  0  0  0  0  0  0  0  0  0  0
   -4.0061    6.2768  -22.5918 C   0  0  0  0  0  0  0  0  0  0  0  0
   -2.0967    7.1114  -23.3150 C   0  0  0  0  0  0  0  0  0  0  0  0
   -1.7028    8.9708  -21.6606 C   0  0  0  0  0  0  0  0  0  0  0  0
   -6.5120    5.9162  -22.6951 C   0  0  0  0  0  0  0  0  0  0  0  0
   -3.5750    6.2894  -16.7977 C   0  0  0  0  0  0  0  0  0  0  0  0
   -4.2497    3.2273  -21.7419 C   0  0  0  0  0  0  0  0  0  0  0  0
   -4.4709    7.3095  -16.9723 C   0  0  0  0  0  0  0  0  0  0  0  0
   -5.2340    8.8747  -20.7578 C   0  0  0  0  0  0  0  0  0  0  0  0
   -3.3466    5.7957  -15.5520 F   0  0  0  0  0  0  0  0  0  0  0  0
   -3.0406    6.1617  -23.5364 N   0  0  0  0  0  0  0  0  0  0  0  0
   -2.4412    7.8368  -22.2408 N   0  0  0  0  0  0  0  0  0  0  0  0
   -6.6364    3.8757  -22.1216 N   0  0  0  0  0  0  0  0  0  0  0  0
   -5.5946    8.8210  -18.4166 N   0  0  0  0  0  0  0  0  0  0  0  0
   -7.3085    4.9299  -22.4789 O   0  0  0  0  0  0  0  0  0  0  0  0
  2  1  2  0
  1  9  1  0
  2  3  1  0
  5  2  1  0
  3 17  2  0
  3 23  1  0
 18  4  1  0
  4 23  2  0
 10  5  1  0
  5 18  2  0
  6  7  1  0
 11  6  1  0
  6 14  2  0
  7 16  1  0
  7 22  2  0
 14  8  1  0
  9 15  2  0
 10 11  2  0
 10 21  1  0
 11 20  1  0
 20 12  2  0
 12 21  1  0
 21 13  1  0
 14 24  1  0
 15 17  1  0
 15 19  1  0
 22 24  1  0
M  END
$$$$
