
     RDKit          3D

 24 27  0  0  0  0  0  0  0  0999 V2000
   -2.1857    7.2447  -18.6676 C   0  0  0  0  0  0  0  0  0  0  0  0
   -3.3123    6.5180  -18.9828 C   0  0  0  0  0  0  0  0  0  0  0  0
   -3.9408    5.8497  -17.9433 C   0  0  0  0  0  0  0  0  0  0  0  0
   -5.5160    5.0615  -19.4656 C   0  0  0  0  0  0  0  0  0  0  0  0
   -3.7998    6.4529  -20.2840 C   0  0  0  0  0  0  0  0  0  0  0  0
   -4.8195    9.0068  -21.7859 C   0  0  0  0  0  0  0  0  0  0  0  0
   -5.9190    9.1063  -22.5865 C   0  0  0  0  0  0  0  0  0  0  0  0
   -4.1565    9.8954  -19.5050 C   0  0  0  0  0  0  0  0  0  0  0  0
   -1.7078    7.3038  -17.3804 C   0  0  0  0  0  0  0  0  0  0  0  0
   -3.1230    7.1794  -21.3559 C   0  0  0  0  0  0  0  0  0  0  0  0
   -3.5706    8.2971  -22.0101 C   0  0  0  0  0  0  0  0  0  0  0  0
   -1.5987    7.7005  -22.7983 C   0  0  0  0  0  0  0  0  0  0  0  0
   -1.0906    5.6699  -21.3953 C   0  0  0  0  0  0  0  0  0  0  0  0
   -5.1223    9.7561  -20.6377 C   0  0  0  0  0  0  0  0  0  0  0  0
   -2.3314    6.6408  -16.3446 C   0  0  0  0  0  0  0  0  0  0  0  0
   -6.1060    8.5002  -23.9105 C   0  0  0  0  0  0  0  0  0  0  0  0
   -3.4528    5.9128  -16.6378 C   0  0  0  0  0  0  0  0  0  0  0  0
   -4.9255    5.7087  -20.5303 C   0  0  0  0  0  0  0  0  0  0  0  0
   -1.8709    6.6885  -15.0665 F   0  0  0  0  0  0  0  0  0  0  0  0
   -2.6032    8.6065  -22.9080 N   0  0  0  0  0  0  0  0  0  0  0  0
   -1.9058    6.8118  -21.8419 N   0  0  0  0  0  0  0  0  0  0  0  0
   -6.8002    9.8684  -21.9338 N   0  0  0  0  0  0  0  0  0  0  0  0
   -5.0312    5.1394  -18.2326 N   0  0  0  0  0  0  0  0  0  0  0  0
   -6.3053   10.2373  -20.7895 O   0  0  0  0  0  0  0  0  0  0  0  0
  2  1  2  0
  1  9  1  0
  2  3  1  0
  5  2  1  0
  3 17  2  0
  3 23  1  0
 18  4  1  0
  4 23  2  0
 10  5  1  0
  5 18  2  0
  6  7  1  0
 11  6  1  0
  6 14  2  0
  7 16  1  0
  7 22  2  0
 14  8  1  0
  9 15  2  0
 10 11  2  0
 10 21  1  0
 11 20  1  0
 20 12  2  0
 12 21  1  0
 21 13  1  0
 14 24  1  0
 15 17  1  0
 15 19  1  0
 22 24  1  0
M  END
$$$$
