
     RDKit          3D

 24 27  0  0  0  0  0  0  0  0999 V2000
    4.8501    6.7624  -10.3225 C   0  0  0  0  0  0  0  0  0  0  0  0
    4.9441    7.2573   -9.0408 C   0  0  0  0  0  0  0  0  0  0  0  0
    6.0563    8.0304   -8.7453 C   0  0  0  0  0  0  0  0  0  0  0  0
    5.2487    8.2781   -6.5758 C   0  0  0  0  0  0  0  0  0  0  0  0
    3.9707    6.9943   -8.0824 C   0  0  0  0  0  0  0  0  0  0  0  0
    3.8601    3.8891   -8.4868 C   0  0  0  0  0  0  0  0  0  0  0  0
    4.5077    3.1838   -9.4578 C   0  0  0  0  0  0  0  0  0  0  0  0
    4.0521    4.0925   -5.9661 C   0  0  0  0  0  0  0  0  0  0  0  0
    5.8158    7.0242  -11.2646 C   0  0  0  0  0  0  0  0  0  0  0  0
    2.8029    6.1872   -8.4283 C   0  0  0  0  0  0  0  0  0  0  0  0
    2.7569    4.8289   -8.6032 C   0  0  0  0  0  0  0  0  0  0  0  0
    0.7523    5.6971   -8.9086 C   0  0  0  0  0  0  0  0  0  0  0  0
    1.1990    8.1446   -8.5090 C   0  0  0  0  0  0  0  0  0  0  0  0
    4.4819    3.5261   -7.2814 C   0  0  0  0  0  0  0  0  0  0  0  0
    6.9225    7.7934  -10.9736 C   0  0  0  0  0  0  0  0  0  0  0  0
    4.2325    3.2073  -10.8997 C   0  0  0  0  0  0  0  0  0  0  0  0
    7.0342    8.2945   -9.7047 C   0  0  0  0  0  0  0  0  0  0  0  0
    4.1267    7.5159   -6.8233 C   0  0  0  0  0  0  0  0  0  0  0  0
    7.8868    8.0607  -11.8936 F   0  0  0  0  0  0  0  0  0  0  0  0
    1.4663    4.5429   -8.9031 N   0  0  0  0  0  0  0  0  0  0  0  0
    1.5656    6.7227   -8.6161 N   0  0  0  0  0  0  0  0  0  0  0  0
    5.4462    2.4593   -8.8434 N   0  0  0  0  0  0  0  0  0  0  0  0
    6.1634    8.5147   -7.5078 N   0  0  0  0  0  0  0  0  0  0  0  0
    5.4087    2.6799   -7.5626 O   0  0  0  0  0  0  0  0  0  0  0  0
  2  1  2  0
  1  9  1  0
  2  3  1  0
  5  2  1  0
  3 17  2  0
  3 23  1  0
 18  4  1  0
  4 23  2  0
 10  5  1  0
  5 18  2  0
  6  7  1  0
 11  6  1  0
  6 14  2  0
  7 16  1  0
  7 22  2  0
 14  8  1  0
  9 15  2  0
 10 11  2  0
 10 21  1  0
 11 20  1  0
 20 12  2  0
 12 21  1  0
 21 13  1  0
 14 24  1  0
 15 17  1  0
 15 19  1  0
 22 24  1  0
M  END
$$$$
