
     RDKit          3D

 24 27  0  0  0  0  0  0  0  0999 V2000
   -4.9693    8.2938  -19.0575 C   0  0  0  0  0  0  0  0  0  0  0  0
   -4.1069    7.2582  -19.3410 C   0  0  0  0  0  0  0  0  0  0  0  0
   -3.9670    6.2740  -18.3746 C   0  0  0  0  0  0  0  0  0  0  0  0
   -2.4521    5.1871  -19.7688 C   0  0  0  0  0  0  0  0  0  0  0  0
   -3.4045    7.1994  -20.5402 C   0  0  0  0  0  0  0  0  0  0  0  0
   -5.4389    7.2153  -22.9231 C   0  0  0  0  0  0  0  0  0  0  0  0
   -5.3354    6.1880  -23.8140 C   0  0  0  0  0  0  0  0  0  0  0  0
   -7.2183    8.0449  -21.3177 C   0  0  0  0  0  0  0  0  0  0  0  0
   -5.6593    8.3474  -17.8701 C   0  0  0  0  0  0  0  0  0  0  0  0
   -3.5836    8.2450  -21.5449 C   0  0  0  0  0  0  0  0  0  0  0  0
   -4.4752    8.2501  -22.5853 C   0  0  0  0  0  0  0  0  0  0  0  0
   -3.2891   10.1098  -22.5991 C   0  0  0  0  0  0  0  0  0  0  0  0
   -1.7990    9.7698  -20.5957 C   0  0  0  0  0  0  0  0  0  0  0  0
   -6.7172    7.0922  -22.3553 C   0  0  0  0  0  0  0  0  0  0  0  0
   -5.5226    7.3696  -16.9077 C   0  0  0  0  0  0  0  0  0  0  0  0
   -4.1866    5.8753  -24.6730 C   0  0  0  0  0  0  0  0  0  0  0  0
   -4.6697    6.3317  -17.1707 C   0  0  0  0  0  0  0  0  0  0  0  0
   -2.5592    6.1412  -20.7584 C   0  0  0  0  0  0  0  0  0  0  0  0
   -6.1970    7.4084  -15.7281 F   0  0  0  0  0  0  0  0  0  0  0  0
   -4.2747    9.4244  -23.2322 N   0  0  0  0  0  0  0  0  0  0  0  0
   -2.8522    9.3930  -21.5531 N   0  0  0  0  0  0  0  0  0  0  0  0
   -6.4879    5.5157  -23.7589 N   0  0  0  0  0  0  0  0  0  0  0  0
   -3.1335    5.2660  -18.6327 N   0  0  0  0  0  0  0  0  0  0  0  0
   -7.2832    6.0698  -22.8922 O   0  0  0  0  0  0  0  0  0  0  0  0
  2  1  2  0
  1  9  1  0
  2  3  1  0
  5  2  1  0
  3 17  2  0
  3 23  1  0
 18  4  1  0
  4 23  2  0
 10  5  1  0
  5 18  2  0
  6  7  1  0
 11  6  1  0
  6 14  2  0
  7 16  1  0
  7 22  2  0
 14  8  1  0
  9 15  2  0
 10 11  2  0
 10 21  1  0
 11 20  1  0
 20 12  2  0
 12 21  1  0
 21 13  1  0
 14 24  1  0
 15 17  1  0
 15 19  1  0
 22 24  1  0
M  END
$$$$
