
     RDKit          3D

 24 27  0  0  0  0  0  0  0  0999 V2000
   -2.8755    8.3296  -21.1498 C   0  0  0  0  0  0  0  0  0  0  0  0
   -3.7932    7.6507  -20.3795 C   0  0  0  0  0  0  0  0  0  0  0  0
   -4.2658    8.2977  -19.2480 C   0  0  0  0  0  0  0  0  0  0  0  0
   -5.5827    6.4333  -18.7898 C   0  0  0  0  0  0  0  0  0  0  0  0
   -4.2275    6.3728  -20.7163 C   0  0  0  0  0  0  0  0  0  0  0  0
   -5.7940    5.8103  -23.3710 C   0  0  0  0  0  0  0  0  0  0  0  0
   -6.8545    4.9857  -23.6061 C   0  0  0  0  0  0  0  0  0  0  0  0
   -5.4428    8.3197  -23.2644 C   0  0  0  0  0  0  0  0  0  0  0  0
   -2.4489    9.5914  -20.8110 C   0  0  0  0  0  0  0  0  0  0  0  0
   -3.7211    5.7224  -21.9227 C   0  0  0  0  0  0  0  0  0  0  0  0
   -4.4080    5.4789  -23.0831 C   0  0  0  0  0  0  0  0  0  0  0  0
   -2.3353    4.7466  -23.2654 C   0  0  0  0  0  0  0  0  0  0  0  0
   -1.3880    5.3539  -21.0108 C   0  0  0  0  0  0  0  0  0  0  0  0
   -6.3054    7.1147  -23.4623 C   0  0  0  0  0  0  0  0  0  0  0  0
   -2.9178   10.2374  -19.6867 C   0  0  0  0  0  0  0  0  0  0  0  0
   -6.8453    3.5177  -23.6260 C   0  0  0  0  0  0  0  0  0  0  0  0
   -3.8307    9.5789  -18.9078 C   0  0  0  0  0  0  0  0  0  0  0  0
   -5.1416    5.7512  -19.9040 C   0  0  0  0  0  0  0  0  0  0  0  0
   -2.5053   11.4846  -19.3374 F   0  0  0  0  0  0  0  0  0  0  0  0
   -3.5238    4.8681  -23.9093 N   0  0  0  0  0  0  0  0  0  0  0  0
   -2.4419    5.2711  -22.0357 N   0  0  0  0  0  0  0  0  0  0  0  0
   -7.9117    5.7730  -23.8194 N   0  0  0  0  0  0  0  0  0  0  0  0
   -5.1528    7.6526  -18.4901 N   0  0  0  0  0  0  0  0  0  0  0  0
   -7.5601    7.0215  -23.7290 O   0  0  0  0  0  0  0  0  0  0  0  0
  2  1  2  0
  1  9  1  0
  2  3  1  0
  5  2  1  0
  3 17  2  0
  3 23  1  0
 18  4  1  0
  4 23  2  0
 10  5  1  0
  5 18  2  0
  6  7  1  0
 11  6  1  0
  6 14  2  0
  7 16  1  0
  7 22  2  0
 14  8  1  0
  9 15  2  0
 10 11  2  0
 10 21  1  0
 11 20  1  0
 20 12  2  0
 12 21  1  0
 21 13  1  0
 14 24  1  0
 15 17  1  0
 15 19  1  0
 22 24  1  0
M  END
$$$$
