
     RDKit          3D

 24 27  0  0  0  0  0  0  0  0999 V2000
   -2.3335    6.7687  -19.5137 C   0  0  0  0  0  0  0  0  0  0  0  0
   -3.4410    7.5793  -19.4004 C   0  0  0  0  0  0  0  0  0  0  0  0
   -3.8860    7.8604  -18.1178 C   0  0  0  0  0  0  0  0  0  0  0  0
   -5.5939    9.1439  -19.0428 C   0  0  0  0  0  0  0  0  0  0  0  0
   -4.0883    8.0932  -20.5194 C   0  0  0  0  0  0  0  0  0  0  0  0
   -5.5273    6.4369  -22.7563 C   0  0  0  0  0  0  0  0  0  0  0  0
   -6.6877    6.7601  -23.3956 C   0  0  0  0  0  0  0  0  0  0  0  0
   -4.8130    4.6615  -21.0921 C   0  0  0  0  0  0  0  0  0  0  0  0
   -1.6992    6.2625  -18.4045 C   0  0  0  0  0  0  0  0  0  0  0  0
   -3.5871    7.7899  -21.8579 C   0  0  0  0  0  0  0  0  0  0  0  0
   -4.2192    7.0664  -22.8349 C   0  0  0  0  0  0  0  0  0  0  0  0
   -2.2587    7.7669  -23.5639 C   0  0  0  0  0  0  0  0  0  0  0  0
   -1.4032    9.0364  -21.5625 C   0  0  0  0  0  0  0  0  0  0  0  0
   -5.8357    5.3228  -21.9592 C   0  0  0  0  0  0  0  0  0  0  0  0
   -2.1392    6.5411  -17.1278 C   0  0  0  0  0  0  0  0  0  0  0  0
   -6.8967    7.8594  -24.3460 C   0  0  0  0  0  0  0  0  0  0  0  0
   -3.2390    7.3451  -16.9943 C   0  0  0  0  0  0  0  0  0  0  0  0
   -5.1881    8.8924  -20.3363 C   0  0  0  0  0  0  0  0  0  0  0  0
   -1.5238    6.0477  -16.0208 F   0  0  0  0  0  0  0  0  0  0  0  0
   -3.3719    7.0637  -23.8931 N   0  0  0  0  0  0  0  0  0  0  0  0
   -2.3776    8.2227  -22.3082 N   0  0  0  0  0  0  0  0  0  0  0  0
   -7.6070    5.8814  -22.9881 N   0  0  0  0  0  0  0  0  0  0  0  0
   -4.9590    8.6415  -17.9913 N   0  0  0  0  0  0  0  0  0  0  0  0
   -7.0784    5.0468  -22.1427 O   0  0  0  0  0  0  0  0  0  0  0  0
  2  1  2  0
  1  9  1  0
  2  3  1  0
  5  2  1  0
  3 17  2  0
  3 23  1  0
 18  4  1  0
  4 23  2  0
 10  5  1  0
  5 18  2  0
  6  7  1  0
 11  6  1  0
  6 14  2  0
  7 16  1  0
  7 22  2  0
 14  8  1  0
  9 15  2  0
 10 11  2  0
 10 21  1  0
 11 20  1  0
 20 12  2  0
 12 21  1  0
 21 13  1  0
 14 24  1  0
 15 17  1  0
 15 19  1  0
 22 24  1  0
M  END
$$$$
