
     RDKit          3D

 24 27  0  0  0  0  0  0  0  0999 V2000
   -2.7636    6.9993  -19.9911 C   0  0  0  0  0  0  0  0  0  0  0  0
   -4.0132    7.5684  -19.8655 C   0  0  0  0  0  0  0  0  0  0  0  0
   -4.5136    7.7844  -18.5750 C   0  0  0  0  0  0  0  0  0  0  0  0
   -6.4755    8.6833  -19.4976 C   0  0  0  0  0  0  0  0  0  0  0  0
   -4.7523    7.9141  -20.9736 C   0  0  0  0  0  0  0  0  0  0  0  0
   -5.8608    5.8335  -22.9270 C   0  0  0  0  0  0  0  0  0  0  0  0
   -7.1276    5.8733  -23.4623 C   0  0  0  0  0  0  0  0  0  0  0  0
   -4.6070    4.3232  -21.2779 C   0  0  0  0  0  0  0  0  0  0  0  0
   -1.9844    6.6337  -18.9095 C   0  0  0  0  0  0  0  0  0  0  0  0
   -4.2434    7.7054  -22.3208 C   0  0  0  0  0  0  0  0  0  0  0  0
   -4.7633    6.7537  -23.1881 C   0  0  0  0  0  0  0  0  0  0  0  0
   -3.1237    7.8445  -24.1492 C   0  0  0  0  0  0  0  0  0  0  0  0
   -2.4490    9.4389  -22.3508 C   0  0  0  0  0  0  0  0  0  0  0  0
   -5.8094    4.7383  -22.0734 C   0  0  0  0  0  0  0  0  0  0  0  0
   -2.4820    6.8488  -17.6418 C   0  0  0  0  0  0  0  0  0  0  0  0
   -7.7181    6.8308  -24.4245 C   0  0  0  0  0  0  0  0  0  0  0  0
   -3.7292    7.4166  -17.5153 C   0  0  0  0  0  0  0  0  0  0  0  0
   -5.9933    8.4758  -20.7728 C   0  0  0  0  0  0  0  0  0  0  0  0
   -1.7415    6.5002  -16.5653 F   0  0  0  0  0  0  0  0  0  0  0  0
   -4.0373    6.8712  -24.3201 N   0  0  0  0  0  0  0  0  0  0  0  0
   -3.2399    8.3685  -22.9196 N   0  0  0  0  0  0  0  0  0  0  0  0
   -7.7697    4.8287  -22.9239 N   0  0  0  0  0  0  0  0  0  0  0  0
   -5.7318    8.3363  -18.4352 N   0  0  0  0  0  0  0  0  0  0  0  0
   -6.9802    4.1866  -22.1208 O   0  0  0  0  0  0  0  0  0  0  0  0
  2  1  2  0
  1  9  1  0
  2  3  1  0
  5  2  1  0
  3 17  2  0
  3 23  1  0
 18  4  1  0
  4 23  2  0
 10  5  1  0
  5 18  2  0
  6  7  1  0
 11  6  1  0
  6 14  2  0
 16  7  1  6
  7 22  2  0
  8 14  1  6
  9 15  2  0
 10 11  2  0
 10 21  1  0
 11 20  1  0
 20 12  2  0
 12 21  1  0
 13 21  1  6
 14 24  1  0
 15 17  1  0
 15 19  1  0
 22 24  1  0
M  END
$$$$
