
     RDKit          3D

 24 27  0  0  0  0  0  0  0  0999 V2000
   -4.8374    6.2793  -20.1593 C   0  0  0  0  0  0  0  0  0  0  0  0
   -4.0630    7.4104  -20.2906 C   0  0  0  0  0  0  0  0  0  0  0  0
   -3.9943    8.2563  -19.1943 C   0  0  0  0  0  0  0  0  0  0  0  0
   -2.5905    9.6524  -20.4190 C   0  0  0  0  0  0  0  0  0  0  0  0
   -3.3805    7.6964  -21.4685 C   0  0  0  0  0  0  0  0  0  0  0  0
   -5.7543    7.3783  -23.4889 C   0  0  0  0  0  0  0  0  0  0  0  0
   -7.0275    6.9283  -23.2985 C   0  0  0  0  0  0  0  0  0  0  0  0
   -4.6820    9.6290  -23.9543 C   0  0  0  0  0  0  0  0  0  0  0  0
   -5.5108    6.0029  -18.9935 C   0  0  0  0  0  0  0  0  0  0  0  0
   -3.4617    6.7783  -22.6023 C   0  0  0  0  0  0  0  0  0  0  0  0
   -4.5006    6.6422  -23.4853 C   0  0  0  0  0  0  0  0  0  0  0  0
   -2.8746    5.2480  -24.0126 C   0  0  0  0  0  0  0  0  0  0  0  0
   -1.1708    5.7665  -22.2300 C   0  0  0  0  0  0  0  0  0  0  0  0
   -5.8731    8.7609  -23.7031 C   0  0  0  0  0  0  0  0  0  0  0  0
   -5.4436    6.8420  -17.9014 C   0  0  0  0  0  0  0  0  0  0  0  0
   -7.4465    5.5456  -23.0377 C   0  0  0  0  0  0  0  0  0  0  0  0
   -4.6789    7.9719  -18.0123 C   0  0  0  0  0  0  0  0  0  0  0  0
   -2.6285    8.8418  -21.5338 C   0  0  0  0  0  0  0  0  0  0  0  0
   -6.1041    6.5834  -16.7419 F   0  0  0  0  0  0  0  0  0  0  0  0
   -4.1137    5.6804  -24.3587 N   0  0  0  0  0  0  0  0  0  0  0  0
   -2.4581    5.9184  -22.9282 N   0  0  0  0  0  0  0  0  0  0  0  0
   -7.8285    7.9921  -23.3979 N   0  0  0  0  0  0  0  0  0  0  0  0
   -3.2509    9.3572  -19.3064 N   0  0  0  0  0  0  0  0  0  0  0  0
   -7.1227    9.0577  -23.6365 O   0  0  0  0  0  0  0  0  0  0  0  0
  2  1  2  0
  1  9  1  0
  2  3  1  0
  5  2  1  0
  3 17  2  0
  3 23  1  0
 18  4  1  0
  4 23  2  0
 10  5  1  0
  5 18  2  0
  6  7  1  0
 11  6  1  0
  6 14  2  0
  7 16  1  0
  7 22  2  0
 14  8  1  0
  9 15  2  0
 10 11  2  0
 10 21  1  0
 11 20  1  0
 20 12  2  0
 12 21  1  0
 21 13  1  0
 14 24  1  0
 15 17  1  0
 15 19  1  0
 22 24  1  0
M  END
$$$$
