
     RDKit          3D

 24 27  0  0  0  0  0  0  0  0999 V2000
   -4.8080    6.5155  -20.1165 C   0  0  0  0  0  0  0  0  0  0  0  0
   -3.6537    7.2697  -20.1103 C   0  0  0  0  0  0  0  0  0  0  0  0
   -3.3486    8.0003  -18.9547 C   0  0  0  0  0  0  0  0  0  0  0  0
   -1.3989    8.8000  -19.9879 C   0  0  0  0  0  0  0  0  0  0  0  0
   -2.8231    7.3082  -21.2068 C   0  0  0  0  0  0  0  0  0  0  0  0
   -3.9340    8.5336  -23.7831 C   0  0  0  0  0  0  0  0  0  0  0  0
   -5.1560    9.1498  -23.6411 C   0  0  0  0  0  0  0  0  0  0  0  0
   -1.5693    9.2682  -24.4470 C   0  0  0  0  0  0  0  0  0  0  0  0
   -5.6743    6.4460  -19.0417 C   0  0  0  0  0  0  0  0  0  0  0  0
   -3.1203    6.5478  -22.4114 C   0  0  0  0  0  0  0  0  0  0  0  0
   -3.6248    7.1274  -23.5680 C   0  0  0  0  0  0  0  0  0  0  0  0
   -3.3575    4.9710  -23.8512 C   0  0  0  0  0  0  0  0  0  0  0  0
   -2.4517    4.2737  -21.6320 C   0  0  0  0  0  0  0  0  0  0  0  0
   -3.0256    9.5082  -24.1777 C   0  0  0  0  0  0  0  0  0  0  0  0
   -5.3688    7.1670  -17.9069 C   0  0  0  0  0  0  0  0  0  0  0  0
   -6.4624    8.5791  -23.2425 C   0  0  0  0  0  0  0  0  0  0  0  0
   -4.2171    7.9203  -17.8998 C   0  0  0  0  0  0  0  0  0  0  0  0
   -1.6886    8.0849  -21.1308 C   0  0  0  0  0  0  0  0  0  0  0  0
   -6.1989    7.1180  -16.8405 F   0  0  0  0  0  0  0  0  0  0  0  0
   -3.7598    6.1099  -24.4447 N   0  0  0  0  0  0  0  0  0  0  0  0
   -2.9597    5.2267  -22.5957 N   0  0  0  0  0  0  0  0  0  0  0  0
   -4.9392   10.4353  -23.9474 N   0  0  0  0  0  0  0  0  0  0  0  0
   -2.2278    8.7429  -18.9334 N   0  0  0  0  0  0  0  0  0  0  0  0
   -3.6929   10.6155  -24.2554 O   0  0  0  0  0  0  0  0  0  0  0  0
  2  1  2  0
  1  9  1  0
  2  3  1  0
  5  2  1  0
  3 17  2  0
  3 23  1  0
 18  4  1  0
  4 23  2  0
 10  5  1  0
  5 18  2  0
  6  7  1  0
 11  6  1  0
  6 14  2  0
 16  7  1  6
  7 22  2  0
  8 14  1  6
  9 15  2  0
 10 11  2  0
 10 21  1  0
 11 20  1  0
 20 12  2  0
 12 21  1  0
 13 21  1  6
 14 24  1  0
 15 17  1  0
 15 19  1  0
 22 24  1  0
M  END
$$$$
