
     RDKit          3D

 24 27  0  0  0  0  0  0  0  0999 V2000
   -2.9908    6.4358  -19.1800 C   0  0  0  0  0  0  0  0  0  0  0  0
   -4.1107    7.2134  -19.3864 C   0  0  0  0  0  0  0  0  0  0  0  0
   -4.9063    7.5325  -18.2784 C   0  0  0  0  0  0  0  0  0  0  0  0
   -6.3519    8.7409  -19.6778 C   0  0  0  0  0  0  0  0  0  0  0  0
   -4.4424    7.6636  -20.6437 C   0  0  0  0  0  0  0  0  0  0  0  0
   -5.3727    5.9289  -22.9888 C   0  0  0  0  0  0  0  0  0  0  0  0
   -6.4095    6.3240  -23.8023 C   0  0  0  0  0  0  0  0  0  0  0  0
   -4.9749    4.0400  -21.3017 C   0  0  0  0  0  0  0  0  0  0  0  0
   -2.6172    5.9587  -17.9377 C   0  0  0  0  0  0  0  0  0  0  0  0
   -3.6218    7.3493  -21.8036 C   0  0  0  0  0  0  0  0  0  0  0  0
   -4.0670    6.5587  -22.8549 C   0  0  0  0  0  0  0  0  0  0  0  0
   -2.0134    7.2289  -23.2229 C   0  0  0  0  0  0  0  0  0  0  0  0
   -1.5513    8.5979  -21.1873 C   0  0  0  0  0  0  0  0  0  0  0  0
   -5.7978    4.7993  -22.3004 C   0  0  0  0  0  0  0  0  0  0  0  0
   -3.4039    6.2761  -16.8508 C   0  0  0  0  0  0  0  0  0  0  0  0
   -6.4922    7.4642  -24.7427 C   0  0  0  0  0  0  0  0  0  0  0  0
   -4.5220    7.0519  -17.0558 C   0  0  0  0  0  0  0  0  0  0  0  0
   -5.5764    8.4335  -20.7759 C   0  0  0  0  0  0  0  0  0  0  0  0
   -3.0625    5.8222  -15.6236 F   0  0  0  0  0  0  0  0  0  0  0  0
   -3.0336    6.5067  -23.7218 N   0  0  0  0  0  0  0  0  0  0  0  0
   -2.3629    7.7551  -22.0393 N   0  0  0  0  0  0  0  0  0  0  0  0
   -7.3898    5.4400  -23.5767 N   0  0  0  0  0  0  0  0  0  0  0  0
   -6.0033    8.2878  -18.4631 N   0  0  0  0  0  0  0  0  0  0  0  0
   -7.0073    4.5651  -22.6998 O   0  0  0  0  0  0  0  0  0  0  0  0
  2  1  2  0
  1  9  1  0
  2  3  1  0
  5  2  1  0
  3 17  2  0
  3 23  1  0
 18  4  1  0
  4 23  2  0
 10  5  1  0
  5 18  2  0
  6  7  1  0
 11  6  1  0
  6 14  2  0
 16  7  1  6
  7 22  2  0
  8 14  1  6
  9 15  2  0
 10 11  2  0
 10 21  1  0
 11 20  1  0
 20 12  2  0
 12 21  1  0
 13 21  1  6
 14 24  1  0
 15 17  1  0
 15 19  1  0
 22 24  1  0
M  END
$$$$
