
     RDKit          3D

 24 27  0  0  0  0  0  0  0  0999 V2000
   -3.4843    7.6279  -20.1742 C   0  0  0  0  0  0  0  0  0  0  0  0
   -4.7569    7.6138  -20.7047 C   0  0  0  0  0  0  0  0  0  0  0  0
   -5.8370    7.8141  -19.8354 C   0  0  0  0  0  0  0  0  0  0  0  0
   -7.3182    7.6009  -21.6433 C   0  0  0  0  0  0  0  0  0  0  0  0
   -4.9651    7.4069  -22.0492 C   0  0  0  0  0  0  0  0  0  0  0  0
   -4.0138    4.6654  -23.0253 C   0  0  0  0  0  0  0  0  0  0  0  0
   -4.7276    3.8081  -23.8308 C   0  0  0  0  0  0  0  0  0  0  0  0
   -3.2385    4.6767  -20.5818 C   0  0  0  0  0  0  0  0  0  0  0  0
   -3.2244    7.8298  -18.8318 C   0  0  0  0  0  0  0  0  0  0  0  0
   -3.8540    7.2068  -22.9674 C   0  0  0  0  0  0  0  0  0  0  0  0
   -3.4412    5.9518  -23.3949 C   0  0  0  0  0  0  0  0  0  0  0  0
   -2.1969    7.5119  -24.3003 C   0  0  0  0  0  0  0  0  0  0  0  0
   -3.2013    9.5859  -23.3406 C   0  0  0  0  0  0  0  0  0  0  0  0
   -3.9335    4.0777  -21.7688 C   0  0  0  0  0  0  0  0  0  0  0  0
   -4.2913    8.0267  -17.9808 C   0  0  0  0  0  0  0  0  0  0  0  0
   -5.1052    3.9434  -25.2557 C   0  0  0  0  0  0  0  0  0  0  0  0
   -5.5619    8.0124  -18.5093 C   0  0  0  0  0  0  0  0  0  0  0  0
   -6.2631    7.4029  -22.5088 C   0  0  0  0  0  0  0  0  0  0  0  0
   -4.0664    8.2260  -16.6623 F   0  0  0  0  0  0  0  0  0  0  0  0
   -2.4034    6.1841  -24.2264 N   0  0  0  0  0  0  0  0  0  0  0  0
   -3.0857    8.1554  -23.5284 N   0  0  0  0  0  0  0  0  0  0  0  0
   -5.0391    2.7675  -23.0476 N   0  0  0  0  0  0  0  0  0  0  0  0
   -7.0847    7.8006  -20.3365 N   0  0  0  0  0  0  0  0  0  0  0  0
   -4.5653    2.9504  -21.8548 O   0  0  0  0  0  0  0  0  0  0  0  0
  2  1  2  0
  1  9  1  0
  2  3  1  0
  5  2  1  0
  3 17  2  0
  3 23  1  0
 18  4  1  0
  4 23  2  0
 10  5  1  0
  5 18  2  0
  6  7  1  0
 11  6  1  0
  6 14  2  0
 16  7  1  6
  7 22  2  0
  8 14  1  6
  9 15  2  0
 10 11  2  0
 10 21  1  0
 11 20  1  0
 20 12  2  0
 12 21  1  0
 13 21  1  6
 14 24  1  0
 15 17  1  0
 15 19  1  0
 22 24  1  0
M  END
$$$$
