
     RDKit          3D

 24 27  0  0  0  0  0  0  0  0999 V2000
   -3.9130    8.0381  -20.4744 C   0  0  0  0  0  0  0  0  0  0  0  0
   -4.5263    6.8097  -20.3467 C   0  0  0  0  0  0  0  0  0  0  0  0
   -5.0822    6.4752  -19.1051 C   0  0  0  0  0  0  0  0  0  0  0  0
   -5.7596    4.4046  -19.9782 C   0  0  0  0  0  0  0  0  0  0  0  0
   -4.5910    5.9332  -21.4056 C   0  0  0  0  0  0  0  0  0  0  0  0
   -6.2257    6.9928  -23.7675 C   0  0  0  0  0  0  0  0  0  0  0  0
   -6.8638    8.2100  -23.7031 C   0  0  0  0  0  0  0  0  0  0  0  0
   -6.9539    4.5398  -23.9256 C   0  0  0  0  0  0  0  0  0  0  0  0
   -3.8213    8.9511  -19.4407 C   0  0  0  0  0  0  0  0  0  0  0  0
   -4.0272    6.2689  -22.7044 C   0  0  0  0  0  0  0  0  0  0  0  0
   -4.7907    6.7475  -23.7609 C   0  0  0  0  0  0  0  0  0  0  0  0
   -2.6857    6.5952  -24.3505 C   0  0  0  0  0  0  0  0  0  0  0  0
   -1.6316    5.7319  -22.2589 C   0  0  0  0  0  0  0  0  0  0  0  0
   -7.2107    6.0155  -23.8404 C   0  0  0  0  0  0  0  0  0  0  0  0
   -4.3704    8.6166  -18.2210 C   0  0  0  0  0  0  0  0  0  0  0  0
   -6.2938    9.5730  -23.6115 C   0  0  0  0  0  0  0  0  0  0  0  0
   -4.9825    7.3907  -18.0925 C   0  0  0  0  0  0  0  0  0  0  0  0
   -5.2163    4.7230  -21.2050 C   0  0  0  0  0  0  0  0  0  0  0  0
   -4.2946    9.4905  -17.1919 F   0  0  0  0  0  0  0  0  0  0  0  0
   -3.9167    6.9393  -24.7717 N   0  0  0  0  0  0  0  0  0  0  0  0
   -2.7391    6.1800  -23.0759 N   0  0  0  0  0  0  0  0  0  0  0  0
   -8.1715    7.9236  -23.7391 N   0  0  0  0  0  0  0  0  0  0  0  0
   -5.6817    5.2799  -18.9633 N   0  0  0  0  0  0  0  0  0  0  0  0
   -8.3444    6.6413  -23.8190 O   0  0  0  0  0  0  0  0  0  0  0  0
  2  1  2  0
  1  9  1  0
  2  3  1  0
  5  2  1  0
  3 17  2  0
  3 23  1  0
 18  4  1  0
  4 23  2  0
 10  5  1  0
  5 18  2  0
  6  7  1  0
 11  6  1  0
  6 14  2  0
 16  7  1  6
  7 22  2  0
  8 14  1  6
  9 15  2  0
 10 11  2  0
 10 21  1  0
 11 20  1  0
 20 12  2  0
 12 21  1  0
 13 21  1  6
 14 24  1  0
 15 17  1  0
 15 19  1  0
 22 24  1  0
M  END
$$$$
