
     RDKit          3D

 24 27  0  0  0  0  0  0  0  0999 V2000
   -3.7361    6.0313  -18.9277 C   0  0  0  0  0  0  0  0  0  0  0  0
   -2.9803    6.9398  -19.6382 C   0  0  0  0  0  0  0  0  0  0  0  0
   -2.0678    7.7346  -18.9325 C   0  0  0  0  0  0  0  0  0  0  0  0
   -1.4366    8.7737  -20.9401 C   0  0  0  0  0  0  0  0  0  0  0  0
   -3.1168    7.0670  -21.0016 C   0  0  0  0  0  0  0  0  0  0  0  0
   -5.9967    7.8850  -21.6423 C   0  0  0  0  0  0  0  0  0  0  0  0
   -6.4349    8.8892  -22.4745 C   0  0  0  0  0  0  0  0  0  0  0  0
   -5.9647    7.4755  -19.1117 C   0  0  0  0  0  0  0  0  0  0  0  0
   -3.6366    5.8679  -17.5588 C   0  0  0  0  0  0  0  0  0  0  0  0
   -4.0529    6.2426  -21.7510 C   0  0  0  0  0  0  0  0  0  0  0  0
   -5.3554    6.6363  -22.0281 C   0  0  0  0  0  0  0  0  0  0  0  0
   -4.9621    4.6547  -22.8769 C   0  0  0  0  0  0  0  0  0  0  0  0
   -2.5863    4.2769  -22.2103 C   0  0  0  0  0  0  0  0  0  0  0  0
   -6.2777    8.2787  -20.3397 C   0  0  0  0  0  0  0  0  0  0  0  0
   -2.7366    6.6528  -16.8695 C   0  0  0  0  0  0  0  0  0  0  0  0
   -6.3816    8.9848  -23.9507 C   0  0  0  0  0  0  0  0  0  0  0  0
   -1.9820    7.5600  -17.5777 C   0  0  0  0  0  0  0  0  0  0  0  0
   -2.3313    7.9967  -21.6455 C   0  0  0  0  0  0  0  0  0  0  0  0
   -2.6187    6.5146  -15.5295 F   0  0  0  0  0  0  0  0  0  0  0  0
   -5.8915    5.6174  -22.7330 N   0  0  0  0  0  0  0  0  0  0  0  0
   -3.8221    5.0276  -22.2759 N   0  0  0  0  0  0  0  0  0  0  0  0
   -6.9480    9.8210  -21.6611 N   0  0  0  0  0  0  0  0  0  0  0  0
   -1.3249    8.6273  -19.6103 N   0  0  0  0  0  0  0  0  0  0  0  0
   -6.8436    9.4404  -20.4262 O   0  0  0  0  0  0  0  0  0  0  0  0
  2  1  2  0
  1  9  1  0
  2  3  1  0
  5  2  1  0
  3 17  2  0
  3 23  1  0
 18  4  1  0
  4 23  2  0
 10  5  1  0
  5 18  2  0
  6  7  1  0
 11  6  1  0
  6 14  2  0
 16  7  1  6
  7 22  2  0
  8 14  1  6
  9 15  2  0
 10 11  2  0
 10 21  1  0
 11 20  1  0
 20 12  2  0
 12 21  1  0
 13 21  1  6
 14 24  1  0
 15 17  1  0
 15 19  1  0
 22 24  1  0
M  END
$$$$
