
     RDKit          3D

 24 27  0  0  0  0  0  0  0  0999 V2000
   -3.9946    8.5467  -19.9363 C   0  0  0  0  0  0  0  0  0  0  0  0
   -3.5028    7.3106  -20.2988 C   0  0  0  0  0  0  0  0  0  0  0  0
   -3.1964    6.3976  -19.2814 C   0  0  0  0  0  0  0  0  0  0  0  0
   -2.5192    4.8381  -20.8994 C   0  0  0  0  0  0  0  0  0  0  0  0
   -3.3146    6.9796  -21.6212 C   0  0  0  0  0  0  0  0  0  0  0  0
   -6.0350    7.1203  -23.0187 C   0  0  0  0  0  0  0  0  0  0  0  0
   -6.3456    5.9027  -23.5791 C   0  0  0  0  0  0  0  0  0  0  0  0
   -7.0960    8.6645  -21.2688 C   0  0  0  0  0  0  0  0  0  0  0  0
   -4.1993    8.9261  -18.6230 C   0  0  0  0  0  0  0  0  0  0  0  0
   -3.6367    7.9126  -22.6905 C   0  0  0  0  0  0  0  0  0  0  0  0
   -4.8790    7.9561  -23.3093 C   0  0  0  0  0  0  0  0  0  0  0  0
   -3.5456    9.4662  -24.1716 C   0  0  0  0  0  0  0  0  0  0  0  0
   -1.4573    9.1172  -22.8492 C   0  0  0  0  0  0  0  0  0  0  0  0
   -7.0396    7.4216  -22.1073 C   0  0  0  0  0  0  0  0  0  0  0  0
   -3.8962    8.0234  -17.6259 C   0  0  0  0  0  0  0  0  0  0  0  0
   -5.6183    5.1199  -24.6035 C   0  0  0  0  0  0  0  0  0  0  0  0
   -3.4050    6.7895  -17.9867 C   0  0  0  0  0  0  0  0  0  0  0  0
   -2.8174    5.7283  -21.9095 C   0  0  0  0  0  0  0  0  0  0  0  0
   -4.0859    8.3681  -16.3322 F   0  0  0  0  0  0  0  0  0  0  0  0
   -4.7827    8.9394  -24.2292 N   0  0  0  0  0  0  0  0  0  0  0  0
   -2.8276    8.8421  -23.2256 N   0  0  0  0  0  0  0  0  0  0  0  0
   -7.4932    5.5307  -22.9977 N   0  0  0  0  0  0  0  0  0  0  0  0
   -2.7135    5.1887  -19.6181 N   0  0  0  0  0  0  0  0  0  0  0  0
   -7.8738    6.4317  -22.1469 O   0  0  0  0  0  0  0  0  0  0  0  0
  2  1  2  0
  1  9  1  0
  2  3  1  0
  5  2  1  0
  3 17  2  0
  3 23  1  0
 18  4  1  0
  4 23  2  0
 10  5  1  0
  5 18  2  0
  6  7  1  0
 11  6  1  0
  6 14  2  0
 16  7  1  6
  7 22  2  0
  8 14  1  6
  9 15  2  0
 10 11  2  0
 10 21  1  0
 11 20  1  0
 20 12  2  0
 12 21  1  0
 13 21  1  6
 14 24  1  0
 15 17  1  0
 15 19  1  0
 22 24  1  0
M  END
$$$$
