
     RDKit          3D

 24 27  0  0  0  0  0  0  0  0999 V2000
   -5.8633    7.6787  -22.5833 C   0  0  0  0  0  0  0  0  0  0  0  0
   -5.7252    6.4563  -21.9643 C   0  0  0  0  0  0  0  0  0  0  0  0
   -6.8394    5.6315  -21.9456 C   0  0  0  0  0  0  0  0  0  0  0  0
   -5.5889    4.0481  -20.7841 C   0  0  0  0  0  0  0  0  0  0  0  0
   -4.5248    6.0637  -21.3812 C   0  0  0  0  0  0  0  0  0  0  0  0
   -3.5892    8.0892  -19.1814 C   0  0  0  0  0  0  0  0  0  0  0  0
   -3.2787    7.6014  -17.9463 C   0  0  0  0  0  0  0  0  0  0  0  0
   -5.3420    9.6665  -20.1149 C   0  0  0  0  0  0  0  0  0  0  0  0
   -7.0524    8.0619  -23.1562 C   0  0  0  0  0  0  0  0  0  0  0  0
   -3.3640    6.9497  -21.4292 C   0  0  0  0  0  0  0  0  0  0  0  0
   -2.9562    7.8337  -20.4650 C   0  0  0  0  0  0  0  0  0  0  0  0
   -1.5739    7.9002  -22.1827 C   0  0  0  0  0  0  0  0  0  0  0  0
   -2.5992    6.1861  -23.7189 C   0  0  0  0  0  0  0  0  0  0  0  0
   -4.6952    8.9317  -18.9849 C   0  0  0  0  0  0  0  0  0  0  0  0
   -8.1618    7.2432  -23.1396 C   0  0  0  0  0  0  0  0  0  0  0  0
   -2.1950    6.6695  -17.6108 C   0  0  0  0  0  0  0  0  0  0  0  0
   -8.0446    6.0238  -22.5288 C   0  0  0  0  0  0  0  0  0  0  0  0
   -4.4556    4.8334  -20.7784 C   0  0  0  0  0  0  0  0  0  0  0  0
   -9.3450    7.6076  -23.7007 F   0  0  0  0  0  0  0  0  0  0  0  0
   -1.8357    8.4179  -20.9557 N   0  0  0  0  0  0  0  0  0  0  0  0
   -2.5105    6.9904  -22.4888 N   0  0  0  0  0  0  0  0  0  0  0  0
   -4.1562    8.1343  -17.0924 N   0  0  0  0  0  0  0  0  0  0  0  0
   -6.7227    4.4457  -21.3476 N   0  0  0  0  0  0  0  0  0  0  0  0
   -4.9787    8.9133  -17.7306 O   0  0  0  0  0  0  0  0  0  0  0  0
  2  1  2  0
  1  9  1  0
  2  3  1  0
  5  2  1  0
  3 17  2  0
  3 23  1  0
 18  4  1  0
  4 23  2  0
 10  5  1  0
  5 18  2  0
  6  7  1  0
 11  6  1  0
  6 14  2  0
  7 16  1  0
  7 22  2  0
 14  8  1  0
  9 15  2  0
 10 11  2  0
 10 21  1  0
 11 20  1  0
 20 12  2  0
 12 21  1  0
 21 13  1  0
 14 24  1  0
 15 17  1  0
 15 19  1  0
 22 24  1  0
M  END
$$$$
