
     RDKit          3D

 24 27  0  0  0  0  0  0  0  0999 V2000
   -4.4065    8.1950  -20.7432 C   0  0  0  0  0  0  0  0  0  0  0  0
   -5.2036    7.0754  -20.6319 C   0  0  0  0  0  0  0  0  0  0  0  0
   -5.5367    6.6270  -19.3472 C   0  0  0  0  0  0  0  0  0  0  0  0
   -6.7702    4.8681  -20.2923 C   0  0  0  0  0  0  0  0  0  0  0  0
   -5.6595    6.4127  -21.7484 C   0  0  0  0  0  0  0  0  0  0  0  0
   -2.9147    6.0650  -23.0594 C   0  0  0  0  0  0  0  0  0  0  0  0
   -1.7577    6.6751  -22.6326 C   0  0  0  0  0  0  0  0  0  0  0  0
   -3.8129    3.6648  -23.1244 C   0  0  0  0  0  0  0  0  0  0  0  0
   -3.9230    8.8932  -19.6526 C   0  0  0  0  0  0  0  0  0  0  0  0
   -5.3308    6.8707  -23.0900 C   0  0  0  0  0  0  0  0  0  0  0  0
   -4.0770    6.7015  -23.6623 C   0  0  0  0  0  0  0  0  0  0  0  0
   -5.4201    7.7236  -25.0599 C   0  0  0  0  0  0  0  0  0  0  0  0
   -7.5329    7.8497  -23.7365 C   0  0  0  0  0  0  0  0  0  0  0  0
   -2.7781    4.7048  -22.8108 C   0  0  0  0  0  0  0  0  0  0  0  0
   -4.2542    8.4474  -18.3906 C   0  0  0  0  0  0  0  0  0  0  0  0
   -1.3756    8.1049  -22.6630 C   0  0  0  0  0  0  0  0  0  0  0  0
   -5.0495    7.3299  -18.2785 C   0  0  0  0  0  0  0  0  0  0  0  0
   -6.4492    5.3002  -21.5619 C   0  0  0  0  0  0  0  0  0  0  0  0
   -3.7945    9.1109  -17.3056 F   0  0  0  0  0  0  0  0  0  0  0  0
   -4.1723    7.2476  -24.8931 N   0  0  0  0  0  0  0  0  0  0  0  0
   -6.1462    7.4972  -23.9547 N   0  0  0  0  0  0  0  0  0  0  0  0
   -0.9926    5.6841  -22.1571 N   0  0  0  0  0  0  0  0  0  0  0  0
   -6.3111    5.5350  -19.2214 N   0  0  0  0  0  0  0  0  0  0  0  0
   -1.6101    4.5501  -22.2730 O   0  0  0  0  0  0  0  0  0  0  0  0
  2  1  2  0
  1  9  1  0
  2  3  1  0
  5  2  1  0
  3 17  2  0
  3 23  1  0
 18  4  1  0
  4 23  2  0
 10  5  1  0
  5 18  2  0
  6  7  1  0
 11  6  1  0
  6 14  2  0
 16  7  1  6
  7 22  2  0
  8 14  1  6
  9 15  2  0
 10 11  2  0
 10 21  1  0
 11 20  1  0
 20 12  2  0
 12 21  1  0
 13 21  1  6
 14 24  1  0
 15 17  1  0
 15 19  1  0
 22 24  1  0
M  END
$$$$
