
     RDKit          3D

 24 27  0  0  0  0  0  0  0  0999 V2000
   -3.8714    8.7319  -20.9365 C   0  0  0  0  0  0  0  0  0  0  0  0
   -3.8241    7.6138  -20.1339 C   0  0  0  0  0  0  0  0  0  0  0  0
   -3.9777    7.8116  -18.7703 C   0  0  0  0  0  0  0  0  0  0  0  0
   -3.7467    5.5159  -18.4594 C   0  0  0  0  0  0  0  0  0  0  0  0
   -3.6291    6.3421  -20.6628 C   0  0  0  0  0  0  0  0  0  0  0  0
   -5.8852    5.6677  -22.7299 C   0  0  0  0  0  0  0  0  0  0  0  0
   -6.9188    6.5558  -22.7846 C   0  0  0  0  0  0  0  0  0  0  0  0
   -5.6411    3.2097  -22.1552 C   0  0  0  0  0  0  0  0  0  0  0  0
   -4.0626    9.9861  -20.4080 C   0  0  0  0  0  0  0  0  0  0  0  0
   -3.4840    6.1643  -22.1058 C   0  0  0  0  0  0  0  0  0  0  0  0
   -4.4728    5.8708  -23.0079 C   0  0  0  0  0  0  0  0  0  0  0  0
   -2.5370    6.0665  -24.0473 C   0  0  0  0  0  0  0  0  0  0  0  0
   -0.9906    6.6036  -22.1317 C   0  0  0  0  0  0  0  0  0  0  0  0
   -6.4583    4.4490  -22.3328 C   0  0  0  0  0  0  0  0  0  0  0  0
   -4.2165   10.1855  -19.0523 C   0  0  0  0  0  0  0  0  0  0  0  0
   -6.8452    7.9762  -23.1483 C   0  0  0  0  0  0  0  0  0  0  0  0
   -4.1723    9.0863  -18.2377 C   0  0  0  0  0  0  0  0  0  0  0  0
   -3.5896    5.2706  -19.8071 C   0  0  0  0  0  0  0  0  0  0  0  0
   -4.4054   11.4192  -18.5139 F   0  0  0  0  0  0  0  0  0  0  0  0
   -3.8598    5.8137  -24.2156 N   0  0  0  0  0  0  0  0  0  0  0  0
   -2.2897    6.2857  -22.7474 N   0  0  0  0  0  0  0  0  0  0  0  0
   -8.0197    5.8838  -22.4390 N   0  0  0  0  0  0  0  0  0  0  0  0
   -3.9315    6.7393  -17.9794 N   0  0  0  0  0  0  0  0  0  0  0  0
   -7.7198    4.6458  -22.1781 O   0  0  0  0  0  0  0  0  0  0  0  0
  2  1  2  0
  1  9  1  0
  2  3  1  0
  5  2  1  0
  3 17  2  0
  3 23  1  0
 18  4  1  0
  4 23  2  0
 10  5  1  0
  5 18  2  0
  6  7  1  0
 11  6  1  0
  6 14  2  0
  7 16  1  0
  7 22  2  0
 14  8  1  0
  9 15  2  0
 10 11  2  0
 10 21  1  0
 11 20  1  0
 20 12  2  0
 12 21  1  0
 21 13  1  0
 14 24  1  0
 15 17  1  0
 15 19  1  0
 22 24  1  0
M  END
$$$$
