
     RDKit          3D

 24 27  0  0  0  0  0  0  0  0999 V2000
   -7.0220   21.1568  -22.8401 C   0  0  0  0  0  0  0  0  0  0  0  0
   -8.0757   21.5722  -23.6234 C   0  0  0  0  0  0  0  0  0  0  0  0
   -8.6966   20.6095  -24.4043 C   0  0  0  0  0  0  0  0  0  0  0  0
  -10.1403   22.2537  -25.1996 C   0  0  0  0  0  0  0  0  0  0  0  0
   -8.5000   22.8969  -23.6353 C   0  0  0  0  0  0  0  0  0  0  0  0
   -9.0645   23.5027  -20.6134 C   0  0  0  0  0  0  0  0  0  0  0  0
   -8.8788   22.6540  -19.5623 C   0  0  0  0  0  0  0  0  0  0  0  0
  -11.0712   24.5187  -21.7852 C   0  0  0  0  0  0  0  0  0  0  0  0
   -6.6062   19.8469  -22.8339 C   0  0  0  0  0  0  0  0  0  0  0  0
   -7.8340   23.8859  -22.7908 C   0  0  0  0  0  0  0  0  0  0  0  0
   -8.0819   24.1479  -21.4689 C   0  0  0  0  0  0  0  0  0  0  0  0
   -6.4652   25.4547  -22.2067 C   0  0  0  0  0  0  0  0  0  0  0  0
   -6.2740   24.7106  -24.6066 C   0  0  0  0  0  0  0  0  0  0  0  0
  -10.4554   23.6529  -20.7333 C   0  0  0  0  0  0  0  0  0  0  0  0
   -7.2224   18.8872  -23.6089 C   0  0  0  0  0  0  0  0  0  0  0  0
   -7.5977   22.1740  -19.0295 C   0  0  0  0  0  0  0  0  0  0  0  0
   -8.2720   19.2805  -24.3947 C   0  0  0  0  0  0  0  0  0  0  0  0
   -9.5546   23.2447  -24.4406 C   0  0  0  0  0  0  0  0  0  0  0  0
   -6.8228   17.5880  -23.6147 F   0  0  0  0  0  0  0  0  0  0  0  0
   -7.2159   25.1318  -21.1231 N   0  0  0  0  0  0  0  0  0  0  0  0
   -6.8359   24.6919  -23.2458 N   0  0  0  0  0  0  0  0  0  0  0  0
  -10.0934   22.3371  -19.1068 N   0  0  0  0  0  0  0  0  0  0  0  0
   -9.7168   20.9963  -25.1705 N   0  0  0  0  0  0  0  0  0  0  0  0
  -11.0031   22.9388  -19.8145 O   0  0  0  0  0  0  0  0  0  0  0  0
  2  1  2  0
  1  9  1  0
  2  3  1  0
  5  2  1  0
  3 17  2  0
  3 23  1  0
 18  4  1  0
  4 23  2  0
 10  5  1  0
  5 18  2  0
  6  7  1  0
 11  6  1  0
  6 14  2  0
  7 16  1  0
  7 22  2  0
 14  8  1  0
  9 15  2  0
 10 11  2  0
 10 21  1  0
 11 20  1  0
 20 12  2  0
 12 21  1  0
 21 13  1  0
 14 24  1  0
 15 17  1  0
 15 19  1  0
 22 24  1  0
M  END
$$$$
