
     RDKit          3D

 24 27  0  0  0  0  0  0  0  0999 V2000
   -3.6530    8.1237  -20.2518 C   0  0  0  0  0  0  0  0  0  0  0  0
   -4.4712    7.0148  -20.2982 C   0  0  0  0  0  0  0  0  0  0  0  0
   -5.2193    6.6980  -19.1570 C   0  0  0  0  0  0  0  0  0  0  0  0
   -6.1192    4.8411  -20.2753 C   0  0  0  0  0  0  0  0  0  0  0  0
   -4.5521    6.2371  -21.4306 C   0  0  0  0  0  0  0  0  0  0  0  0
   -5.5968    7.9814  -23.7197 C   0  0  0  0  0  0  0  0  0  0  0  0
   -5.8880    9.3177  -23.5697 C   0  0  0  0  0  0  0  0  0  0  0  0
   -6.9404    5.8449  -24.1696 C   0  0  0  0  0  0  0  0  0  0  0  0
   -3.5365    8.9342  -19.1382 C   0  0  0  0  0  0  0  0  0  0  0  0
   -3.7891    6.5576  -22.6276 C   0  0  0  0  0  0  0  0  0  0  0  0
   -4.2861    7.3511  -23.6530 C   0  0  0  0  0  0  0  0  0  0  0  0
   -2.2471    6.6963  -24.1172 C   0  0  0  0  0  0  0  0  0  0  0  0
   -1.6795    5.3317  -22.1055 C   0  0  0  0  0  0  0  0  0  0  0  0
   -6.7981    7.3222  -23.9500 C   0  0  0  0  0  0  0  0  0  0  0  0
   -4.2754    8.6177  -18.0179 C   0  0  0  0  0  0  0  0  0  0  0  0
   -4.9830   10.4591  -23.3061 C   0  0  0  0  0  0  0  0  0  0  0  0
   -5.0921    7.5109  -18.0632 C   0  0  0  0  0  0  0  0  0  0  0  0
   -5.3878    5.1431  -21.4047 C   0  0  0  0  0  0  0  0  0  0  0  0
   -4.1805    9.3929  -16.9140 F   0  0  0  0  0  0  0  0  0  0  0  0
   -3.2934    7.4143  -24.5656 N   0  0  0  0  0  0  0  0  0  0  0  0
   -2.5392    6.1623  -22.9216 N   0  0  0  0  0  0  0  0  0  0  0  0
   -7.2166    9.4061  -23.7121 N   0  0  0  0  0  0  0  0  0  0  0  0
   -6.0202    5.6182  -19.1851 N   0  0  0  0  0  0  0  0  0  0  0  0
   -7.7199    8.2318  -23.9322 O   0  0  0  0  0  0  0  0  0  0  0  0
  2  1  2  0
  1  9  1  0
  2  3  1  0
  5  2  1  0
  3 17  2  0
  3 23  1  0
 18  4  1  0
  4 23  2  0
 10  5  1  0
  5 18  2  0
  6  7  1  0
 11  6  1  0
  6 14  2  0
 16  7  1  6
  7 22  2  0
  8 14  1  6
  9 15  2  0
 10 11  2  0
 10 21  1  0
 11 20  1  0
 20 12  2  0
 12 21  1  0
 13 21  1  6
 14 24  1  0
 15 17  1  0
 15 19  1  0
 22 24  1  0
M  END
$$$$
