
     RDKit          3D

 24 27  0  0  0  0  0  0  0  0999 V2000
   -3.6387    5.4489  -18.3048 C   0  0  0  0  0  0  0  0  0  0  0  0
   -2.6525    6.3075  -18.7370 C   0  0  0  0  0  0  0  0  0  0  0  0
   -1.7412    6.7465  -17.7889 C   0  0  0  0  0  0  0  0  0  0  0  0
   -0.6836    7.9886  -19.4499 C   0  0  0  0  0  0  0  0  0  0  0  0
   -2.5719    6.7199  -20.0630 C   0  0  0  0  0  0  0  0  0  0  0  0
   -5.1416    8.1865  -21.0943 C   0  0  0  0  0  0  0  0  0  0  0  0
   -5.7146    8.5847  -19.9226 C   0  0  0  0  0  0  0  0  0  0  0  0
   -4.5268    9.3131  -23.2816 C   0  0  0  0  0  0  0  0  0  0  0  0
   -3.7143    5.0463  -16.9929 C   0  0  0  0  0  0  0  0  0  0  0  0
   -3.5393    6.2290  -21.0418 C   0  0  0  0  0  0  0  0  0  0  0  0
   -4.6617    6.8731  -21.4922 C   0  0  0  0  0  0  0  0  0  0  0  0
   -4.4705    4.9104  -22.4805 C   0  0  0  0  0  0  0  0  0  0  0  0
   -2.3472    4.0321  -21.4461 C   0  0  0  0  0  0  0  0  0  0  0  0
   -5.0942    9.3364  -21.8986 C   0  0  0  0  0  0  0  0  0  0  0  0
   -2.8088    5.4808  -16.0482 C   0  0  0  0  0  0  0  0  0  0  0  0
   -5.9929    7.7509  -18.7466 C   0  0  0  0  0  0  0  0  0  0  0  0
   -1.8209    6.3350  -16.4582 C   0  0  0  0  0  0  0  0  0  0  0  0
   -1.5660    7.5787  -20.4269 C   0  0  0  0  0  0  0  0  0  0  0  0
   -2.8703    5.0928  -14.7469 F   0  0  0  0  0  0  0  0  0  0  0  0
   -5.2297    6.0318  -22.3906 N   0  0  0  0  0  0  0  0  0  0  0  0
   -3.4211    5.0181  -21.6523 N   0  0  0  0  0  0  0  0  0  0  0  0
   -5.9795    9.8874  -20.0492 N   0  0  0  0  0  0  0  0  0  0  0  0
   -0.7819    7.5805  -18.1909 N   0  0  0  0  0  0  0  0  0  0  0  0
   -5.6043   10.3040  -21.2223 O   0  0  0  0  0  0  0  0  0  0  0  0
  2  1  2  0
  1  9  1  0
  2  3  1  0
  5  2  1  0
  3 17  2  0
  3 23  1  0
 18  4  1  0
  4 23  2  0
 10  5  1  0
  5 18  2  0
  6  7  1  0
 11  6  1  0
  6 14  2  0
  7 16  1  0
  7 22  2  0
 14  8  1  0
  9 15  2  0
 10 11  2  0
 10 21  1  0
 11 20  1  0
 20 12  2  0
 12 21  1  0
 21 13  1  0
 14 24  1  0
 15 17  1  0
 15 19  1  0
 22 24  1  0
M  END
$$$$
