
     RDKit          3D

 24 27  0  0  0  0  0  0  0  0999 V2000
   -3.3469    6.3435  -19.2747 C   0  0  0  0  0  0  0  0  0  0  0  0
   -4.3382    7.2652  -19.5378 C   0  0  0  0  0  0  0  0  0  0  0  0
   -5.0990    7.7417  -18.4624 C   0  0  0  0  0  0  0  0  0  0  0  0
   -6.3285    9.0864  -19.9417 C   0  0  0  0  0  0  0  0  0  0  0  0
   -4.5783    7.7056  -20.8192 C   0  0  0  0  0  0  0  0  0  0  0  0
   -5.5224    5.5616  -22.7904 C   0  0  0  0  0  0  0  0  0  0  0  0
   -6.7069    5.9703  -23.3587 C   0  0  0  0  0  0  0  0  0  0  0  0
   -4.7423    3.5459  -21.4118 C   0  0  0  0  0  0  0  0  0  0  0  0
   -3.0690    5.8698  -18.0063 C   0  0  0  0  0  0  0  0  0  0  0  0
   -3.7910    7.2281  -21.9461 C   0  0  0  0  0  0  0  0  0  0  0  0
   -4.2418    6.2532  -22.8262 C   0  0  0  0  0  0  0  0  0  0  0  0
   -2.2363    6.9264  -23.3978 C   0  0  0  0  0  0  0  0  0  0  0  0
   -1.7555    8.6399  -21.6474 C   0  0  0  0  0  0  0  0  0  0  0  0
   -5.7659    4.3472  -22.1608 C   0  0  0  0  0  0  0  0  0  0  0  0
   -3.8208    6.3425  -16.9516 C   0  0  0  0  0  0  0  0  0  0  0  0
   -7.0088    7.1890  -24.1428 C   0  0  0  0  0  0  0  0  0  0  0  0
   -4.8107    7.2622  -17.2132 C   0  0  0  0  0  0  0  0  0  0  0  0
   -5.5860    8.6248  -21.0082 C   0  0  0  0  0  0  0  0  0  0  0  0
   -3.5712    5.8958  -15.6999 F   0  0  0  0  0  0  0  0  0  0  0  0
   -3.2423    6.0920  -23.7190 N   0  0  0  0  0  0  0  0  0  0  0  0
   -2.5618    7.6341  -22.3056 N   0  0  0  0  0  0  0  0  0  0  0  0
   -7.5911    5.0110  -23.0565 N   0  0  0  0  0  0  0  0  0  0  0  0
   -6.0713    8.6389  -18.7024 N   0  0  0  0  0  0  0  0  0  0  0  0
   -7.0175    4.0802  -22.3600 O   0  0  0  0  0  0  0  0  0  0  0  0
  2  1  2  0
  1  9  1  0
  2  3  1  0
  5  2  1  0
  3 17  2  0
  3 23  1  0
 18  4  1  0
  4 23  2  0
 10  5  1  0
  5 18  2  0
  6  7  1  0
 11  6  1  0
  6 14  2  0
 16  7  1  6
  7 22  2  0
  8 14  1  6
  9 15  2  0
 10 11  2  0
 10 21  1  0
 11 20  1  0
 20 12  2  0
 12 21  1  0
 13 21  1  6
 14 24  1  0
 15 17  1  0
 15 19  1  0
 22 24  1  0
M  END
$$$$
