
     RDKit          3D

 24 27  0  0  0  0  0  0  0  0999 V2000
  -13.2305    8.8371  -23.9060 C   0  0  0  0  0  0  0  0  0  0  0  0
  -13.1025    7.9577  -24.9602 C   0  0  0  0  0  0  0  0  0  0  0  0
  -14.0249    6.9081  -25.0602 C   0  0  0  0  0  0  0  0  0  0  0  0
  -12.9422    6.1555  -27.0018 C   0  0  0  0  0  0  0  0  0  0  0  0
  -12.0974    8.1018  -25.8890 C   0  0  0  0  0  0  0  0  0  0  0  0
  -12.5964   10.9203  -26.9756 C   0  0  0  0  0  0  0  0  0  0  0  0
  -13.5710   11.7454  -26.4633 C   0  0  0  0  0  0  0  0  0  0  0  0
  -12.1952    9.7060  -29.1975 C   0  0  0  0  0  0  0  0  0  0  0  0
  -14.2211    8.7333  -22.9476 C   0  0  0  0  0  0  0  0  0  0  0  0
  -11.1370    9.1918  -25.8052 C   0  0  0  0  0  0  0  0  0  0  0  0
  -11.3871   10.4622  -26.3069 C   0  0  0  0  0  0  0  0  0  0  0  0
   -9.3930   10.3800  -25.4022 C   0  0  0  0  0  0  0  0  0  0  0  0
   -9.2865    8.0127  -24.6172 C   0  0  0  0  0  0  0  0  0  0  0  0
  -12.9756   10.5914  -28.2712 C   0  0  0  0  0  0  0  0  0  0  0  0
  -15.1263    7.6985  -23.0512 C   0  0  0  0  0  0  0  0  0  0  0  0
  -13.6663   12.3822  -25.1304 C   0  0  0  0  0  0  0  0  0  0  0  0
  -14.9993    6.8200  -24.1029 C   0  0  0  0  0  0  0  0  0  0  0  0
  -12.0286    7.1848  -26.9139 C   0  0  0  0  0  0  0  0  0  0  0  0
  -16.1056    7.5724  -22.1273 F   0  0  0  0  0  0  0  0  0  0  0  0
  -10.2738   11.1759  -26.0361 N   0  0  0  0  0  0  0  0  0  0  0  0
   -9.9130    9.1523  -25.2526 N   0  0  0  0  0  0  0  0  0  0  0  0
  -14.4725   11.8762  -27.4448 N   0  0  0  0  0  0  0  0  0  0  0  0
  -13.9124    6.0402  -26.0811 N   0  0  0  0  0  0  0  0  0  0  0  0
  -14.1015   11.1952  -28.4837 O   0  0  0  0  0  0  0  0  0  0  0  0
  2  1  2  0
  1  9  1  0
  2  3  1  0
  5  2  1  0
  3 17  2  0
  3 23  1  0
 18  4  1  0
  4 23  2  0
 10  5  1  0
  5 18  2  0
  6  7  1  0
 11  6  1  0
  6 14  2  0
 16  7  1  6
  7 22  2  0
  8 14  1  6
  9 15  2  0
 10 11  2  0
 10 21  1  0
 11 20  1  0
 20 12  2  0
 12 21  1  0
 13 21  1  6
 14 24  1  0
 15 17  1  0
 15 19  1  0
 22 24  1  0
M  END
$$$$
