
     RDKit          3D

 24 27  0  0  0  0  0  0  0  0999 V2000
   -2.6462    6.7151  -19.2438 C   0  0  0  0  0  0  0  0  0  0  0  0
   -3.8760    7.3356  -19.3055 C   0  0  0  0  0  0  0  0  0  0  0  0
   -4.6094    7.4675  -18.1193 C   0  0  0  0  0  0  0  0  0  0  0  0
   -6.3229    8.5415  -19.3103 C   0  0  0  0  0  0  0  0  0  0  0  0
   -4.3739    7.8115  -20.4969 C   0  0  0  0  0  0  0  0  0  0  0  0
   -5.1523    5.9613  -22.8087 C   0  0  0  0  0  0  0  0  0  0  0  0
   -5.2466    4.6870  -22.2984 C   0  0  0  0  0  0  0  0  0  0  0  0
   -6.7168    7.5641  -24.0559 C   0  0  0  0  0  0  0  0  0  0  0  0
   -2.1047    6.2196  -18.0726 C   0  0  0  0  0  0  0  0  0  0  0  0
   -3.6210    7.6912  -21.7364 C   0  0  0  0  0  0  0  0  0  0  0  0
   -3.9948    6.8434  -22.7706 C   0  0  0  0  0  0  0  0  0  0  0  0
   -2.1644    7.9266  -23.2980 C   0  0  0  0  0  0  0  0  0  0  0  0
   -1.7976    9.3279  -21.2650 C   0  0  0  0  0  0  0  0  0  0  0  0
   -6.3810    6.2669  -23.3809 C   0  0  0  0  0  0  0  0  0  0  0  0
   -2.8308    6.3524  -16.9081 C   0  0  0  0  0  0  0  0  0  0  0  0
   -4.2327    3.8750  -21.5886 C   0  0  0  0  0  0  0  0  0  0  0  0
   -4.0585    6.9713  -16.9687 C   0  0  0  0  0  0  0  0  0  0  0  0
   -5.6101    8.4177  -20.4843 C   0  0  0  0  0  0  0  0  0  0  0  0
   -2.3255    5.8762  -15.7476 F   0  0  0  0  0  0  0  0  0  0  0  0
   -3.0598    7.0187  -23.7284 N   0  0  0  0  0  0  0  0  0  0  0  0
   -2.4989    8.3506  -22.0699 N   0  0  0  0  0  0  0  0  0  0  0  0
   -6.4945    4.2885  -22.5765 N   0  0  0  0  0  0  0  0  0  0  0  0
   -5.8117    8.0679  -18.1629 N   0  0  0  0  0  0  0  0  0  0  0  0
   -7.1314    5.2260  -23.2058 O   0  0  0  0  0  0  0  0  0  0  0  0
  2  1  2  0
  1  9  1  0
  2  3  1  0
  5  2  1  0
  3 17  2  0
  3 23  1  0
 18  4  1  0
  4 23  2  0
 10  5  1  0
  5 18  2  0
  6  7  1  0
 11  6  1  0
  6 14  2  0
 16  7  1  6
  7 22  2  0
  8 14  1  6
  9 15  2  0
 10 11  2  0
 10 21  1  0
 11 20  1  0
 20 12  2  0
 12 21  1  0
 13 21  1  6
 14 24  1  0
 15 17  1  0
 15 19  1  0
 22 24  1  0
M  END
$$$$
