
     RDKit          3D

 24 27  0  0  0  0  0  0  0  0999 V2000
    5.1386    8.7796   -9.4074 C   0  0  0  0  0  0  0  0  0  0  0  0
    3.7950    8.4743   -9.3540 C   0  0  0  0  0  0  0  0  0  0  0  0
    2.9594    9.3025   -8.5936 C   0  0  0  0  0  0  0  0  0  0  0  0
    1.1217    7.9627   -9.1732 C   0  0  0  0  0  0  0  0  0  0  0  0
    3.2853    7.3866  -10.0254 C   0  0  0  0  0  0  0  0  0  0  0  0
    5.2838    5.3817   -8.8591 C   0  0  0  0  0  0  0  0  0  0  0  0
    6.4054    5.7228   -8.1388 C   0  0  0  0  0  0  0  0  0  0  0  0
    3.0559    4.2186   -8.3533 C   0  0  0  0  0  0  0  0  0  0  0  0
    5.6977    9.8591   -8.7497 C   0  0  0  0  0  0  0  0  0  0  0  0
    4.1378    6.5218  -10.8274 C   0  0  0  0  0  0  0  0  0  0  0  0
    5.0374    5.6205  -10.2739 C   0  0  0  0  0  0  0  0  0  0  0  0
    5.1095    5.5217  -12.4618 C   0  0  0  0  0  0  0  0  0  0  0  0
    3.4025    7.2255  -13.1056 C   0  0  0  0  0  0  0  0  0  0  0  0
    4.4072    4.7544   -7.9823 C   0  0  0  0  0  0  0  0  0  0  0  0
    4.8705   10.6709   -8.0029 C   0  0  0  0  0  0  0  0  0  0  0  0
    7.6414    6.4070   -8.5809 C   0  0  0  0  0  0  0  0  0  0  0  0
    3.5293   10.3669   -7.9488 C   0  0  0  0  0  0  0  0  0  0  0  0
    1.9343    7.1405   -9.9251 C   0  0  0  0  0  0  0  0  0  0  0  0
    5.3906   11.7338   -7.3484 F   0  0  0  0  0  0  0  0  0  0  0  0
    5.6258    5.0147  -11.3270 N   0  0  0  0  0  0  0  0  0  0  0  0
    4.1894    6.4528  -12.1682 N   0  0  0  0  0  0  0  0  0  0  0  0
    6.1646    5.2986   -6.8916 N   0  0  0  0  0  0  0  0  0  0  0  0
    1.6470    9.0170   -8.5292 N   0  0  0  0  0  0  0  0  0  0  0  0
    4.9966    4.7398   -6.8291 O   0  0  0  0  0  0  0  0  0  0  0  0
  2  1  2  0
  1  9  1  0
  2  3  1  0
  5  2  1  0
  3 17  2  0
  3 23  1  0
 18  4  1  0
  4 23  2  0
 10  5  1  0
  5 18  2  0
  6  7  1  0
 11  6  1  0
  6 14  2  0
 16  7  1  6
  7 22  2  0
  8 14  1  6
  9 15  2  0
 10 11  2  0
 10 21  1  0
 11 20  1  0
 20 12  2  0
 12 21  1  0
 13 21  1  6
 14 24  1  0
 15 17  1  0
 15 19  1  0
 22 24  1  0
M  END
$$$$
