
     RDKit          3D

 29 31  0  0  0  0  0  0  0  0999 V2000
   90.0028  130.0467  117.5168 N   0  0  0  0  0  0  0  0  0  0  0  0
   88.8154  130.2150  116.7073 C   0  0  2  0  0  0  0  0  0  0  0  0
   88.5104  131.6608  116.5519 C   0  0  0  0  0  0  0  0  0  0  0  0
   88.5210  132.4601  117.5237 O   0  0  0  0  0  0  0  0  0  0  0  0
   87.6336  129.4518  117.2688 C   0  0  1  0  0  0  0  0  0  0  0  0
   87.0907  130.1477  118.5003 C   0  0  0  0  0  0  0  0  0  0  0  0
   86.5043  129.3232  116.2853 C   0  0  0  0  0  0  0  0  0  0  0  0
   90.3473  131.0272  118.4734 C   0  0  0  0  0  0  0  0  0  0  0  0
   87.8428  133.5594  115.1394 C   0  0  0  0  0  0  0  0  0  0  0  0
   88.0379  128.0573  117.6951 C   0  0  0  0  0  0  0  0  0  0  0  0
   91.6211  131.2910  119.0602 C   0  0  0  0  0  0  0  0  0  0  0  0
   95.1621  130.6888  119.1192 C   0  0  0  0  0  0  0  0  0  0  0  0
   95.7133  131.0002  117.7916 C   0  0  0  0  0  0  0  0  0  0  0  0
   95.6374  132.2841  117.2938 C   0  0  0  0  0  0  0  0  0  0  0  0
   96.1432  132.6081  116.0574 C   0  0  0  0  0  0  0  0  0  0  0  0
   96.7368  131.6429  115.2961 C   0  0  0  0  0  0  0  0  0  0  0  0
   96.8334  130.3521  115.7536 C   0  0  0  0  0  0  0  0  0  0  0  0
   96.3133  130.0421  117.0133 C   0  0  0  0  0  0  0  0  0  0  0  0
   93.3685  132.0772  120.1714 C   0  0  0  0  0  0  0  0  0  0  0  0
   91.9820  132.1954  120.0328 C   0  0  0  0  0  0  0  0  0  0  0  0
   91.3074  133.0930  120.8250 C   0  0  0  0  0  0  0  0  0  0  0  0
   91.9927  133.8555  121.7288 C   0  0  0  0  0  0  0  0  0  0  0  0
   93.3514  133.7437  121.8654 C   0  0  0  0  0  0  0  0  0  0  0  0
   94.0413  132.8553  121.0882 C   0  0  0  0  0  0  0  0  0  0  0  0
   97.2437  131.9316  114.0754 F   0  0  0  0  0  0  0  0  0  0  0  0
   92.7775  130.6663  118.6520 N   0  0  0  0  0  0  0  0  0  0  0  0
   93.8093  131.1334  119.3101 N   0  0  0  0  0  0  0  0  0  0  0  0
   89.3823  131.7992  118.8887 O   0  0  0  0  0  0  0  0  0  0  0  0
   88.1946  132.2157  115.3190 O   0  0  0  0  0  0  0  0  0  0  0  0
  2  1  1  1
  8  1  1  0
  2  3  1  0
  2  5  1  0
  3  4  2  0
  3 29  1  0
  5  6  1  1
  5  7  1  0
  5 10  1  0
 11  8  1  0
  8 28  2  0
 29  9  1  0
 20 11  1  0
 11 26  2  0
 12 13  1  0
 27 12  1  0
 13 14  2  0
 13 18  1  0
 14 15  1  0
 15 16  2  0
 17 16  1  0
 16 25  1  0
 18 17  2  0
 19 20  2  0
 19 24  1  0
 19 27  1  0
 20 21  1  0
 21 22  2  0
 22 23  1  0
 23 24  2  0
 26 27  1  0
M  END
$$$$
