
     RDKit          3D

 29 31  0  0  0  0  0  0  0  0999 V2000
   90.0415  134.6817  119.9826 N   0  0  0  0  0  0  0  0  0  0  0  0
   89.2103  135.4380  120.8941 C   0  0  2  0  0  0  0  0  0  0  0  0
   89.4349  134.9726  122.2872 C   0  0  0  0  0  0  0  0  0  0  0  0
   89.4879  133.7524  122.5899 O   0  0  0  0  0  0  0  0  0  0  0  0
   87.7459  135.3732  120.5126 C   0  0  1  0  0  0  0  0  0  0  0  0
   86.9299  136.3068  121.3833 C   0  0  0  0  0  0  0  0  0  0  0  0
   87.5006  135.7580  119.0805 C   0  0  0  0  0  0  0  0  0  0  0  0
   90.7177  133.5286  120.4387 C   0  0  0  0  0  0  0  0  0  0  0  0
   89.7860  135.4650  124.6704 C   0  0  0  0  0  0  0  0  0  0  0  0
   87.1895  133.9813  120.7202 C   0  0  0  0  0  0  0  0  0  0  0  0
   91.2590  132.4520  119.6742 C   0  0  0  0  0  0  0  0  0  0  0  0
   91.9385  131.0033  116.4579 C   0  0  0  0  0  0  0  0  0  0  0  0
   93.2148  131.4066  115.8481 C   0  0  0  0  0  0  0  0  0  0  0  0
   93.9352  132.4560  116.3790 C   0  0  0  0  0  0  0  0  0  0  0  0
   95.1313  132.8573  115.8333 C   0  0  0  0  0  0  0  0  0  0  0  0
   95.6266  132.2080  114.7395 C   0  0  0  0  0  0  0  0  0  0  0  0
   94.9417  131.1583  114.1794 C   0  0  0  0  0  0  0  0  0  0  0  0
   93.7272  130.7648  114.7484 C   0  0  0  0  0  0  0  0  0  0  0  0
   92.3108  130.6602  118.9064 C   0  0  0  0  0  0  0  0  0  0  0  0
   91.9665  131.3425  120.0775 C   0  0  0  0  0  0  0  0  0  0  0  0
   92.3496  130.8208  121.2897 C   0  0  0  0  0  0  0  0  0  0  0  0
   93.0589  129.6535  121.3370 C   0  0  0  0  0  0  0  0  0  0  0  0
   93.3997  128.9838  120.1913 C   0  0  0  0  0  0  0  0  0  0  0  0
   93.0268  129.4849  118.9752 C   0  0  0  0  0  0  0  0  0  0  0  0
   96.8011  132.5802  114.1805 F   0  0  0  0  0  0  0  0  0  0  0  0
   91.1978  132.4044  118.3001 N   0  0  0  0  0  0  0  0  0  0  0  0
   91.8209  131.3443  117.8486 N   0  0  0  0  0  0  0  0  0  0  0  0
   90.8718  133.4164  121.7284 O   0  0  0  0  0  0  0  0  0  0  0  0
   89.5999  135.8622  123.3403 O   0  0  0  0  0  0  0  0  0  0  0  0
  2  1  1  6
  8  1  1  0
  2  3  1  0
  2  5  1  0
  3  4  2  0
  3 29  1  0
  5  6  1  1
  5  7  1  0
  5 10  1  0
 11  8  1  0
  8 28  2  0
 29  9  1  0
 20 11  1  0
 11 26  2  0
 12 13  1  0
 27 12  1  0
 13 14  2  0
 13 18  1  0
 14 15  1  0
 15 16  2  0
 17 16  1  0
 16 25  1  0
 18 17  2  0
 19 20  2  0
 19 24  1  0
 19 27  1  0
 20 21  1  0
 21 22  2  0
 22 23  1  0
 23 24  2  0
 26 27  1  0
M  END
$$$$
