
     RDKit          3D

 29 31  0  0  0  0  0  0  0  0999 V2000
   91.0936  132.3377  119.9894 N   0  0  0  0  0  0  0  0  0  0  0  0
   89.7128  132.3170  120.4212 C   0  0  2  0  0  0  0  0  0  0  0  0
   89.4565  133.4491  121.3488 C   0  0  0  0  0  0  0  0  0  0  0  0
   90.2443  133.7459  122.2840 O   0  0  0  0  0  0  0  0  0  0  0  0
   89.3328  130.9888  121.0422 C   0  0  1  0  0  0  0  0  0  0  0  0
   90.2301  130.6804  122.2235 C   0  0  0  0  0  0  0  0  0  0  0  0
   87.9121  130.9613  121.5322 C   0  0  0  0  0  0  0  0  0  0  0  0
   91.4585  133.0611  118.8324 C   0  0  0  0  0  0  0  0  0  0  0  0
   87.9973  135.2598  122.1474 C   0  0  0  0  0  0  0  0  0  0  0  0
   89.5040  129.8559  120.0537 C   0  0  0  0  0  0  0  0  0  0  0  0
   92.7413  133.1691  118.2165 C   0  0  0  0  0  0  0  0  0  0  0  0
   96.1021  131.9459  117.8799 C   0  0  0  0  0  0  0  0  0  0  0  0
   96.1844  130.7185  117.0736 C   0  0  0  0  0  0  0  0  0  0  0  0
   95.2356  129.7284  117.2202 C   0  0  0  0  0  0  0  0  0  0  0  0
   95.2836  128.5700  116.4818 C   0  0  0  0  0  0  0  0  0  0  0  0
   96.2906  128.3855  115.5789 C   0  0  0  0  0  0  0  0  0  0  0  0
   97.2557  129.3457  115.4014 C   0  0  0  0  0  0  0  0  0  0  0  0
   97.1899  130.5168  116.1615 C   0  0  0  0  0  0  0  0  0  0  0  0
   94.4981  133.6208  116.9453 C   0  0  0  0  0  0  0  0  0  0  0  0
   93.1722  133.9871  117.1970 C   0  0  0  0  0  0  0  0  0  0  0  0
   92.6105  135.0028  116.4613 C   0  0  0  0  0  0  0  0  0  0  0  0
   93.3458  135.6358  115.4987 C   0  0  0  0  0  0  0  0  0  0  0  0
   94.6444  135.2778  115.2483 C   0  0  0  0  0  0  0  0  0  0  0  0
   95.2226  134.2711  115.9702 C   0  0  0  0  0  0  0  0  0  0  0  0
   96.3641  127.2559  114.8378 F   0  0  0  0  0  0  0  0  0  0  0  0
   93.8000  132.3527  118.5432 N   0  0  0  0  0  0  0  0  0  0  0  0
   94.8373  132.6214  117.7898 N   0  0  0  0  0  0  0  0  0  0  0  0
   90.5081  133.7278  118.2393 O   0  0  0  0  0  0  0  0  0  0  0  0
   88.3269  134.2486  121.2362 O   0  0  0  0  0  0  0  0  0  0  0  0
  2  1  1  1
  8  1  1  0
  2  3  1  0
  2  5  1  0
  3  4  2  0
  3 29  1  0
  5  6  1  1
  5  7  1  0
  5 10  1  0
 11  8  1  0
  8 28  2  0
 29  9  1  0
 20 11  1  0
 11 26  2  0
 12 13  1  0
 27 12  1  0
 13 14  2  0
 13 18  1  0
 14 15  1  0
 15 16  2  0
 17 16  1  0
 16 25  1  0
 18 17  2  0
 19 20  2  0
 19 24  1  0
 19 27  1  0
 20 21  1  0
 21 22  2  0
 22 23  1  0
 23 24  2  0
 26 27  1  0
M  END
$$$$
