
     RDKit          3D

 29 31  0  0  0  0  0  0  0  0999 V2000
   90.9814  134.8082  120.4148 N   0  0  0  0  0  0  0  0  0  0  0  0
   90.1441  135.9746  120.5943 C   0  0  2  0  0  0  0  0  0  0  0  0
   89.0308  135.6589  121.5262 C   0  0  0  0  0  0  0  0  0  0  0  0
   88.2841  134.6582  121.3698 O   0  0  0  0  0  0  0  0  0  0  0  0
   89.6323  136.5137  119.2745 C   0  0  1  0  0  0  0  0  0  0  0  0
   88.8063  135.4645  118.5586 C   0  0  0  0  0  0  0  0  0  0  0  0
   88.7711  137.7343  119.4398 C   0  0  0  0  0  0  0  0  0  0  0  0
   90.4672  133.5229  120.6950 C   0  0  0  0  0  0  0  0  0  0  0  0
   87.6860  136.2137  123.5085 C   0  0  0  0  0  0  0  0  0  0  0  0
   90.7767  136.8753  118.3527 C   0  0  0  0  0  0  0  0  0  0  0  0
   90.9351  132.2559  120.2342 C   0  0  0  0  0  0  0  0  0  0  0  0
   93.6271  130.2570  118.9448 C   0  0  0  0  0  0  0  0  0  0  0  0
   93.9454  130.7006  117.5791 C   0  0  0  0  0  0  0  0  0  0  0  0
   93.6574  129.8887  116.5022 C   0  0  0  0  0  0  0  0  0  0  0  0
   93.9416  130.2738  115.2136 C   0  0  0  0  0  0  0  0  0  0  0  0
   94.5229  131.4873  114.9837 C   0  0  0  0  0  0  0  0  0  0  0  0
   94.8263  132.3265  116.0270 C   0  0  0  0  0  0  0  0  0  0  0  0
   94.5298  131.9173  117.3302 C   0  0  0  0  0  0  0  0  0  0  0  0
   91.2557  130.1239  119.7262 C   0  0  0  0  0  0  0  0  0  0  0  0
   90.3098  131.0300  120.2159 C   0  0  0  0  0  0  0  0  0  0  0  0
   89.0553  130.5729  120.5408 C   0  0  0  0  0  0  0  0  0  0  0  0
   88.7496  129.2498  120.3863 C   0  0  0  0  0  0  0  0  0  0  0  0
   89.6748  128.3592  119.9089 C   0  0  0  0  0  0  0  0  0  0  0  0
   90.9281  128.7937  119.5780 C   0  0  0  0  0  0  0  0  0  0  0  0
   94.8144  131.8936  113.7265 F   0  0  0  0  0  0  0  0  0  0  0  0
   92.2124  132.0558  119.7624 N   0  0  0  0  0  0  0  0  0  0  0  0
   92.3996  130.7943  119.4633 N   0  0  0  0  0  0  0  0  0  0  0  0
   89.4229  133.4710  121.4737 O   0  0  0  0  0  0  0  0  0  0  0  0
   88.7490  136.4543  122.6288 O   0  0  0  0  0  0  0  0  0  0  0  0
  2  1  1  6
  8  1  1  0
  2  3  1  0
  2  5  1  0
  3  4  2  0
  3 29  1  0
  5  6  1  6
  5  7  1  0
  5 10  1  0
 11  8  1  0
  8 28  2  0
 29  9  1  0
 20 11  1  0
 11 26  2  0
 12 13  1  0
 27 12  1  0
 13 14  2  0
 13 18  1  0
 14 15  1  0
 15 16  2  0
 17 16  1  0
 16 25  1  0
 18 17  2  0
 19 20  2  0
 19 24  1  0
 19 27  1  0
 20 21  1  0
 21 22  2  0
 22 23  1  0
 23 24  2  0
 26 27  1  0
M  END
$$$$
