
     RDKit          3D

 29 31  0  0  0  0  0  0  0  0999 V2000
   89.5725  134.4933  119.2688 N   0  0  0  0  0  0  0  0  0  0  0  0
   88.3672  135.2443  119.5457 C   0  0  2  0  0  0  0  0  0  0  0  0
   88.5168  135.9864  120.8242 C   0  0  0  0  0  0  0  0  0  0  0  0
   89.4191  135.7164  121.6587 O   0  0  0  0  0  0  0  0  0  0  0  0
   87.1374  134.3602  119.5535 C   0  0  1  0  0  0  0  0  0  0  0  0
   87.1961  133.3814  120.7086 C   0  0  0  0  0  0  0  0  0  0  0  0
   85.8603  135.1416  119.6854 C   0  0  0  0  0  0  0  0  0  0  0  0
   89.8737  133.3408  120.0277 C   0  0  0  0  0  0  0  0  0  0  0  0
   87.9951  138.0219  122.1010 C   0  0  0  0  0  0  0  0  0  0  0  0
   87.0489  133.5382  118.2860 C   0  0  0  0  0  0  0  0  0  0  0  0
   91.0143  132.4877  119.9383 C   0  0  0  0  0  0  0  0  0  0  0  0
   94.2847  131.8597  118.5913 C   0  0  0  0  0  0  0  0  0  0  0  0
   94.2708  131.1079  117.3272 C   0  0  0  0  0  0  0  0  0  0  0  0
   95.1542  130.0673  117.1303 C   0  0  0  0  0  0  0  0  0  0  0  0
   95.1666  129.3446  115.9611 C   0  0  0  0  0  0  0  0  0  0  0  0
   94.2873  129.6565  114.9647 C   0  0  0  0  0  0  0  0  0  0  0  0
   93.3909  130.6848  115.1192 C   0  0  0  0  0  0  0  0  0  0  0  0
   93.3936  131.4081  116.3152 C   0  0  0  0  0  0  0  0  0  0  0  0
   92.5896  130.9509  120.1889 C   0  0  0  0  0  0  0  0  0  0  0  0
   91.3128  131.3280  120.6167 C   0  0  0  0  0  0  0  0  0  0  0  0
   90.6572  130.5403  121.5321 C   0  0  0  0  0  0  0  0  0  0  0  0
   91.2557  129.4092  122.0122 C   0  0  0  0  0  0  0  0  0  0  0  0
   92.5074  129.0382  121.5967 C   0  0  0  0  0  0  0  0  0  0  0  0
   93.1761  129.8070  120.6852 C   0  0  0  0  0  0  0  0  0  0  0  0
   94.2758  128.9632  113.8029 F   0  0  0  0  0  0  0  0  0  0  0  0
   92.0975  132.7674  119.1368 N   0  0  0  0  0  0  0  0  0  0  0  0
   93.0278  131.8576  119.2872 N   0  0  0  0  0  0  0  0  0  0  0  0
   89.0004  132.9948  120.9318 O   0  0  0  0  0  0  0  0  0  0  0  0
   87.6651  137.0259  121.1732 O   0  0  0  0  0  0  0  0  0  0  0  0
  2  1  1  1
  8  1  1  0
  2  3  1  0
  2  5  1  0
  3  4  2  0
  3 29  1  0
  5  6  1  1
  5  7  1  0
  5 10  1  0
 11  8  1  0
  8 28  2  0
 29  9  1  0
 20 11  1  0
 11 26  2  0
 12 13  1  0
 27 12  1  0
 13 14  2  0
 13 18  1  0
 14 15  1  0
 15 16  2  0
 17 16  1  0
 16 25  1  0
 18 17  2  0
 19 20  2  0
 19 24  1  0
 19 27  1  0
 20 21  1  0
 21 22  2  0
 22 23  1  0
 23 24  2  0
 26 27  1  0
M  END
$$$$
