
     RDKit          3D

 29 31  0  0  0  0  0  0  0  0999 V2000
   92.1516  132.7039  120.6338 N   0  0  0  0  0  0  0  0  0  0  0  0
   93.0007  133.8042  120.2313 C   0  0  2  0  0  0  0  0  0  0  0  0
   92.1745  134.8939  119.6504 C   0  0  0  0  0  0  0  0  0  0  0  0
   91.2925  134.6795  118.7789 O   0  0  0  0  0  0  0  0  0  0  0  0
   94.0904  133.3600  119.2776 C   0  0  1  0  0  0  0  0  0  0  0  0
   93.4858  132.8166  117.9989 C   0  0  0  0  0  0  0  0  0  0  0  0
   95.0231  134.4764  118.8999 C   0  0  0  0  0  0  0  0  0  0  0  0
   90.9380  132.9618  121.3088 C   0  0  0  0  0  0  0  0  0  0  0  0
   91.5764  137.2746  119.5098 C   0  0  0  0  0  0  0  0  0  0  0  0
   94.9202  132.2462  119.8785 C   0  0  0  0  0  0  0  0  0  0  0  0
   89.8271  132.0889  121.5099 C   0  0  0  0  0  0  0  0  0  0  0  0
   88.2397  128.9335  120.8554 C   0  0  0  0  0  0  0  0  0  0  0  0
   87.7144  128.9066  119.4818 C   0  0  0  0  0  0  0  0  0  0  0  0
   88.1913  127.9826  118.5758 C   0  0  0  0  0  0  0  0  0  0  0  0
   87.7211  127.9306  117.2852 C   0  0  0  0  0  0  0  0  0  0  0  0
   86.7590  128.8104  116.8806 C   0  0  0  0  0  0  0  0  0  0  0  0
   86.2567  129.7464  117.7503 C   0  0  0  0  0  0  0  0  0  0  0  0
   86.7473  129.7836  119.0586 C   0  0  0  0  0  0  0  0  0  0  0  0
   87.9989  131.0367  122.1858 C   0  0  0  0  0  0  0  0  0  0  0  0
   88.7321  132.2183  122.3335 C   0  0  0  0  0  0  0  0  0  0  0  0
   88.2603  133.1939  123.1784 C   0  0  0  0  0  0  0  0  0  0  0  0
   87.0924  132.9994  123.8612 C   0  0  0  0  0  0  0  0  0  0  0  0
   86.3729  131.8419  123.7204 C   0  0  0  0  0  0  0  0  0  0  0  0
   86.8238  130.8595  122.8834 C   0  0  0  0  0  0  0  0  0  0  0  0
   86.2768  128.7835  115.6168 F   0  0  0  0  0  0  0  0  0  0  0  0
   89.7215  130.8589  120.9014 N   0  0  0  0  0  0  0  0  0  0  0  0
   88.6400  130.2386  121.3032 N   0  0  0  0  0  0  0  0  0  0  0  0
   90.7972  134.1538  121.8177 O   0  0  0  0  0  0  0  0  0  0  0  0
   92.3291  136.2182  120.0379 O   0  0  0  0  0  0  0  0  0  0  0  0
  2  1  1  6
  8  1  1  0
  2  3  1  0
  2  5  1  0
  3  4  2  0
  3 29  1  0
  5  6  1  6
  5  7  1  0
  5 10  1  0
 11  8  1  0
  8 28  2  0
 29  9  1  0
 20 11  1  0
 11 26  2  0
 12 13  1  0
 27 12  1  0
 13 14  2  0
 13 18  1  0
 14 15  1  0
 15 16  2  0
 17 16  1  0
 16 25  1  0
 18 17  2  0
 19 20  2  0
 19 24  1  0
 19 27  1  0
 20 21  1  0
 21 22  2  0
 22 23  1  0
 23 24  2  0
 26 27  1  0
M  END
$$$$
