
     RDKit          3D

 29 31  0  0  0  0  0  0  0  0999 V2000
   92.3453  132.1505  119.0016 N   0  0  0  0  0  0  0  0  0  0  0  0
   93.7417  132.5203  119.0861 C   0  0  2  0  0  0  0  0  0  0  0  0
   93.8686  133.8899  119.6479 C   0  0  0  0  0  0  0  0  0  0  0  0
   93.0619  134.8127  119.3632 O   0  0  0  0  0  0  0  0  0  0  0  0
   94.4426  132.3977  117.7489 C   0  0  1  0  0  0  0  0  0  0  0  0
   93.8288  133.3474  116.7403 C   0  0  0  0  0  0  0  0  0  0  0  0
   95.9105  132.7097  117.8312 C   0  0  0  0  0  0  0  0  0  0  0  0
   91.6974  131.5868  120.1229 C   0  0  0  0  0  0  0  0  0  0  0  0
   94.9970  135.4846  121.1410 C   0  0  0  0  0  0  0  0  0  0  0  0
   94.2964  131.0020  117.1827 C   0  0  0  0  0  0  0  0  0  0  0  0
   90.3408  131.1620  120.2481 C   0  0  0  0  0  0  0  0  0  0  0  0
   87.1705  130.5027  118.6928 C   0  0  0  0  0  0  0  0  0  0  0  0
   87.3071  129.4112  117.7163 C   0  0  0  0  0  0  0  0  0  0  0  0
   87.8835  129.6502  116.4864 C   0  0  0  0  0  0  0  0  0  0  0  0
   88.0265  128.6523  115.5520 C   0  0  0  0  0  0  0  0  0  0  0  0
   87.5908  127.3908  115.8387 C   0  0  0  0  0  0  0  0  0  0  0  0
   87.0112  127.1095  117.0510 C   0  0  0  0  0  0  0  0  0  0  0  0
   86.8745  128.1374  117.9881 C   0  0  0  0  0  0  0  0  0  0  0  0
   88.3825  130.3371  120.8734 C   0  0  0  0  0  0  0  0  0  0  0  0
   89.6656  130.6503  121.3328 C   0  0  0  0  0  0  0  0  0  0  0  0
   89.9746  130.4234  122.6524 C   0  0  0  0  0  0  0  0  0  0  0  0
   89.0345  129.8963  123.4928 C   0  0  0  0  0  0  0  0  0  0  0  0
   87.7772  129.5863  123.0453 C   0  0  0  0  0  0  0  0  0  0  0  0
   87.4488  129.8060  121.7365 C   0  0  0  0  0  0  0  0  0  0  0  0
   87.7180  126.3881  114.9392 F   0  0  0  0  0  0  0  0  0  0  0  0
   89.4611  131.1440  119.1899 N   0  0  0  0  0  0  0  0  0  0  0  0
   88.3041  130.6553  119.5621 N   0  0  0  0  0  0  0  0  0  0  0  0
   92.4213  131.4317  121.1961 O   0  0  0  0  0  0  0  0  0  0  0  0
   94.8901  134.2318  120.5240 O   0  0  0  0  0  0  0  0  0  0  0  0
  2  1  1  6
  8  1  1  0
  2  3  1  0
  2  5  1  0
  3  4  2  0
  3 29  1  0
  5  6  1  6
  5  7  1  0
  5 10  1  0
 11  8  1  0
  8 28  2  0
 29  9  1  0
 20 11  1  0
 11 26  2  0
 12 13  1  0
 27 12  1  0
 13 14  2  0
 13 18  1  0
 14 15  1  0
 15 16  2  0
 17 16  1  0
 16 25  1  0
 18 17  2  0
 19 20  2  0
 19 24  1  0
 19 27  1  0
 20 21  1  0
 21 22  2  0
 22 23  1  0
 23 24  2  0
 26 27  1  0
M  END
$$$$
