
     RDKit          3D

 29 31  0  0  0  0  0  0  0  0999 V2000
   91.3993  133.7622  119.9336 N   0  0  0  0  0  0  0  0  0  0  0  0
   91.3413  134.8020  120.9381 C   0  0  2  0  0  0  0  0  0  0  0  0
   90.1069  134.6510  121.7512 C   0  0  0  0  0  0  0  0  0  0  0  0
   88.9706  134.5051  121.2306 O   0  0  0  0  0  0  0  0  0  0  0  0
   91.4435  136.1851  120.3291 C   0  0  1  0  0  0  0  0  0  0  0  0
   91.3421  137.2466  121.4055 C   0  0  0  0  0  0  0  0  0  0  0  0
   92.7376  136.4037  119.5966 C   0  0  0  0  0  0  0  0  0  0  0  0
   90.7803  132.5157  120.1744 C   0  0  0  0  0  0  0  0  0  0  0  0
   88.9909  134.5839  123.9411 C   0  0  0  0  0  0  0  0  0  0  0  0
   90.3121  136.4374  119.3563 C   0  0  0  0  0  0  0  0  0  0  0  0
   90.5637  131.4377  119.2647 C   0  0  0  0  0  0  0  0  0  0  0  0
   91.1545  129.9727  116.0383 C   0  0  0  0  0  0  0  0  0  0  0  0
   92.5940  129.7249  115.8655 C   0  0  0  0  0  0  0  0  0  0  0  0
   93.0697  128.4330  115.7844 C   0  0  0  0  0  0  0  0  0  0  0  0
   94.4086  128.1675  115.6224 C   0  0  0  0  0  0  0  0  0  0  0  0
   95.2970  129.2005  115.5387 C   0  0  0  0  0  0  0  0  0  0  0  0
   94.8660  130.5017  115.6148 C   0  0  0  0  0  0  0  0  0  0  0  0
   93.5007  130.7517  115.7796 C   0  0  0  0  0  0  0  0  0  0  0  0
   90.0712  129.5323  118.2483 C   0  0  0  0  0  0  0  0  0  0  0  0
   89.9231  130.2336  119.4490 C   0  0  0  0  0  0  0  0  0  0  0  0
   89.2236  129.6515  120.4787 C   0  0  0  0  0  0  0  0  0  0  0  0
   88.6881  128.4040  120.3207 C   0  0  0  0  0  0  0  0  0  0  0  0
   88.8334  127.7134  119.1463 C   0  0  0  0  0  0  0  0  0  0  0  0
   89.5241  128.2753  118.1089 C   0  0  0  0  0  0  0  0  0  0  0  0
   96.6207  128.9703  115.3792 F   0  0  0  0  0  0  0  0  0  0  0  0
   91.0664  131.4265  117.9836 N   0  0  0  0  0  0  0  0  0  0  0  0
   90.7744  130.2986  117.3850 N   0  0  0  0  0  0  0  0  0  0  0  0
   90.3385  132.3093  121.3835 O   0  0  0  0  0  0  0  0  0  0  0  0
   90.1366  134.6622  123.1393 O   0  0  0  0  0  0  0  0  0  0  0  0
  2  1  1  6
  8  1  1  0
  2  3  1  0
  2  5  1  0
  3  4  2  0
  3 29  1  0
  5  6  1  1
  5  7  1  0
  5 10  1  0
 11  8  1  0
  8 28  2  0
 29  9  1  0
 20 11  1  0
 11 26  2  0
 12 13  1  0
 27 12  1  0
 13 14  2  0
 13 18  1  0
 14 15  1  0
 15 16  2  0
 17 16  1  0
 16 25  1  0
 18 17  2  0
 19 20  2  0
 19 24  1  0
 19 27  1  0
 20 21  1  0
 21 22  2  0
 22 23  1  0
 23 24  2  0
 26 27  1  0
M  END
$$$$
