
     RDKit          3D

 29 31  0  0  0  0  0  0  0  0999 V2000
   91.2851  133.2366  119.5965 N   0  0  0  0  0  0  0  0  0  0  0  0
   91.2493  133.8573  120.9031 C   0  0  2  0  0  0  0  0  0  0  0  0
   90.4748  133.0083  121.8448 C   0  0  0  0  0  0  0  0  0  0  0  0
   89.4368  132.3884  121.4958 O   0  0  0  0  0  0  0  0  0  0  0  0
   90.7035  135.2690  120.8454 C   0  0  1  0  0  0  0  0  0  0  0  0
   89.3101  135.2741  120.2503 C   0  0  0  0  0  0  0  0  0  0  0  0
   90.6211  135.9164  122.1993 C   0  0  0  0  0  0  0  0  0  0  0  0
   92.3247  132.3369  119.2730 C   0  0  0  0  0  0  0  0  0  0  0  0
   90.1500  132.0618  124.0908 C   0  0  0  0  0  0  0  0  0  0  0  0
   91.5609  136.1494  119.9622 C   0  0  0  0  0  0  0  0  0  0  0  0
   92.4975  131.5644  118.0856 C   0  0  0  0  0  0  0  0  0  0  0  0
   91.3366  130.6669  114.8066 C   0  0  0  0  0  0  0  0  0  0  0  0
   90.1019  129.8760  114.9219 C   0  0  0  0  0  0  0  0  0  0  0  0
   90.0423  128.6037  114.3930 C   0  0  0  0  0  0  0  0  0  0  0  0
   88.9041  127.8385  114.4844 C   0  0  0  0  0  0  0  0  0  0  0  0
   87.8008  128.3409  115.1119 C   0  0  0  0  0  0  0  0  0  0  0  0
   87.8172  129.6027  115.6524 C   0  0  0  0  0  0  0  0  0  0  0  0
   88.9838  130.3656  115.5494 C   0  0  0  0  0  0  0  0  0  0  0  0
   93.2114  130.2931  116.4182 C   0  0  0  0  0  0  0  0  0  0  0  0
   93.5267  130.7325  117.7077 C   0  0  0  0  0  0  0  0  0  0  0  0
   94.6827  130.2842  118.3003 C   0  0  0  0  0  0  0  0  0  0  0  0
   95.5054  129.4245  117.6280 C   0  0  0  0  0  0  0  0  0  0  0  0
   95.2004  128.9939  116.3636 C   0  0  0  0  0  0  0  0  0  0  0  0
   94.0542  129.4265  115.7568 C   0  0  0  0  0  0  0  0  0  0  0  0
   86.6662  127.6113  115.2174 F   0  0  0  0  0  0  0  0  0  0  0  0
   91.6099  131.5986  117.0343 N   0  0  0  0  0  0  0  0  0  0  0  0
   92.0347  130.8466  116.0494 N   0  0  0  0  0  0  0  0  0  0  0  0
   93.2561  132.1767  120.1710 O   0  0  0  0  0  0  0  0  0  0  0  0
   90.8539  132.8493  123.1710 O   0  0  0  0  0  0  0  0  0  0  0  0
  2  1  1  6
  8  1  1  0
  2  3  1  0
  2  5  1  0
  3  4  2  0
  3 29  1  0
  5  6  1  6
  5  7  1  0
  5 10  1  0
 11  8  1  0
  8 28  2  0
 29  9  1  0
 20 11  1  0
 11 26  2  0
 12 13  1  0
 27 12  1  0
 13 14  2  0
 13 18  1  0
 14 15  1  0
 15 16  2  0
 17 16  1  0
 16 25  1  0
 18 17  2  0
 19 20  2  0
 19 24  1  0
 19 27  1  0
 20 21  1  0
 21 22  2  0
 22 23  1  0
 23 24  2  0
 26 27  1  0
M  END
$$$$
