
     RDKit          3D

 29 31  0  0  0  0  0  0  0  0999 V2000
   91.9939  132.3240  120.2323 N   0  0  0  0  0  0  0  0  0  0  0  0
   91.6318  133.0351  121.4393 C   0  0  2  0  0  0  0  0  0  0  0  0
   90.7921  134.2128  121.0992 C   0  0  0  0  0  0  0  0  0  0  0  0
   91.0275  134.9431  120.1019 O   0  0  0  0  0  0  0  0  0  0  0  0
   92.8481  133.4315  122.2503 C   0  0  1  0  0  0  0  0  0  0  0  0
   93.6833  132.2119  122.5830 C   0  0  0  0  0  0  0  0  0  0  0  0
   93.7358  134.4062  121.5284 C   0  0  0  0  0  0  0  0  0  0  0  0
   91.0086  132.0376  119.2617 C   0  0  0  0  0  0  0  0  0  0  0  0
   88.9185  135.7171  121.6208 C   0  0  0  0  0  0  0  0  0  0  0  0
   92.4447  134.0594  123.5667 C   0  0  0  0  0  0  0  0  0  0  0  0
   91.0875  131.1508  118.1464 C   0  0  0  0  0  0  0  0  0  0  0  0
   92.9625  128.7238  116.2759 C   0  0  0  0  0  0  0  0  0  0  0  0
   93.9998  129.3781  115.4639 C   0  0  0  0  0  0  0  0  0  0  0  0
   94.9376  130.1923  116.0633 C   0  0  0  0  0  0  0  0  0  0  0  0
   95.9201  130.8178  115.3333 C   0  0  0  0  0  0  0  0  0  0  0  0
   95.9774  130.6350  113.9817 C   0  0  0  0  0  0  0  0  0  0  0  0
   95.0635  129.8326  113.3449 C   0  0  0  0  0  0  0  0  0  0  0  0
   94.0719  129.2051  114.1043 C   0  0  0  0  0  0  0  0  0  0  0  0
   90.7311  129.8458  116.3924 C   0  0  0  0  0  0  0  0  0  0  0  0
   90.1354  130.8085  117.2133 C   0  0  0  0  0  0  0  0  0  0  0  0
   88.8452  131.2019  116.9506 C   0  0  0  0  0  0  0  0  0  0  0  0
   88.1636  130.6508  115.9020 C   0  0  0  0  0  0  0  0  0  0  0  0
   88.7436  129.7057  115.0973 C   0  0  0  0  0  0  0  0  0  0  0  0
   90.0270  129.3019  115.3402 C   0  0  0  0  0  0  0  0  0  0  0  0
   96.9328  131.2374  113.2367 F   0  0  0  0  0  0  0  0  0  0  0  0
   92.2062  130.4006  117.8638 N   0  0  0  0  0  0  0  0  0  0  0  0
   91.9927  129.6294  116.8267 N   0  0  0  0  0  0  0  0  0  0  0  0
   89.8712  132.6626  119.3852 O   0  0  0  0  0  0  0  0  0  0  0  0
   89.6938  134.5769  121.8666 O   0  0  0  0  0  0  0  0  0  0  0  0
  2  1  1  6
  8  1  1  0
  2  3  1  0
  2  5  1  0
  3  4  2  0
  3 29  1  0
  5  6  1  1
  5  7  1  0
  5 10  1  0
 11  8  1  0
  8 28  2  0
 29  9  1  0
 20 11  1  0
 11 26  2  0
 12 13  1  0
 27 12  1  0
 13 14  2  0
 13 18  1  0
 14 15  1  0
 15 16  2  0
 17 16  1  0
 16 25  1  0
 18 17  2  0
 19 20  2  0
 19 24  1  0
 19 27  1  0
 20 21  1  0
 21 22  2  0
 22 23  1  0
 23 24  2  0
 26 27  1  0
M  END
$$$$
