
     RDKit          3D

 29 31  0  0  0  0  0  0  0  0999 V2000
   90.6492  133.1319  119.5982 N   0  0  0  0  0  0  0  0  0  0  0  0
   89.6879  133.2692  120.6708 C   0  0  2  0  0  0  0  0  0  0  0  0
   88.4563  132.5039  120.3466 C   0  0  0  0  0  0  0  0  0  0  0  0
   87.9757  132.4609  119.1845 O   0  0  0  0  0  0  0  0  0  0  0  0
   89.3802  134.7209  120.9741 C   0  0  1  0  0  0  0  0  0  0  0  0
   90.6583  135.4870  121.2485 C   0  0  0  0  0  0  0  0  0  0  0  0
   88.6700  135.4129  119.8446 C   0  0  0  0  0  0  0  0  0  0  0  0
   91.7371  132.2420  119.7376 C   0  0  0  0  0  0  0  0  0  0  0  0
   86.5913  131.0645  121.0508 C   0  0  0  0  0  0  0  0  0  0  0  0
   88.5179  134.8486  122.2111 C   0  0  0  0  0  0  0  0  0  0  0  0
   92.8068  131.9923  118.8265 C   0  0  0  0  0  0  0  0  0  0  0  0
   94.4692  132.7934  115.7444 C   0  0  0  0  0  0  0  0  0  0  0  0
   93.9689  132.0273  114.5928 C   0  0  0  0  0  0  0  0  0  0  0  0
   94.8522  131.5084  113.6694 C   0  0  0  0  0  0  0  0  0  0  0  0
   94.4173  130.7876  112.5828 C   0  0  0  0  0  0  0  0  0  0  0  0
   93.0808  130.5746  112.4043 C   0  0  0  0  0  0  0  0  0  0  0  0
   92.1672  131.0734  113.2996 C   0  0  0  0  0  0  0  0  0  0  0  0
   92.6288  131.8038  114.3982 C   0  0  0  0  0  0  0  0  0  0  0  0
   94.6579  131.3622  117.7859 C   0  0  0  0  0  0  0  0  0  0  0  0
   93.8954  131.1579  118.9402 C   0  0  0  0  0  0  0  0  0  0  0  0
   94.3272  130.2436  119.8707 C   0  0  0  0  0  0  0  0  0  0  0  0
   95.4877  129.5526  119.6614 C   0  0  0  0  0  0  0  0  0  0  0  0
   96.2381  129.7521  118.5326 C   0  0  0  0  0  0  0  0  0  0  0  0
   95.8253  130.6560  117.5935 C   0  0  0  0  0  0  0  0  0  0  0  0
   92.6227  129.8691  111.3446 F   0  0  0  0  0  0  0  0  0  0  0  0
   92.9424  132.6590  117.6301 N   0  0  0  0  0  0  0  0  0  0  0  0
   94.0380  132.2851  117.0171 N   0  0  0  0  0  0  0  0  0  0  0  0
   91.7814  131.5452  120.8386 O   0  0  0  0  0  0  0  0  0  0  0  0
   87.7613  131.7886  121.3126 O   0  0  0  0  0  0  0  0  0  0  0  0
  2  1  1  6
  8  1  1  0
  2  3  1  0
  2  5  1  0
  3  4  2  0
  3 29  1  0
  5  6  1  1
  5  7  1  0
  5 10  1  0
 11  8  1  0
  8 28  2  0
 29  9  1  0
 20 11  1  0
 11 26  2  0
 12 13  1  0
 27 12  1  0
 13 14  2  0
 13 18  1  0
 14 15  1  0
 15 16  2  0
 17 16  1  0
 16 25  1  0
 18 17  2  0
 19 20  2  0
 19 24  1  0
 19 27  1  0
 20 21  1  0
 21 22  2  0
 22 23  1  0
 23 24  2  0
 26 27  1  0
M  END
$$$$
