
     RDKit          3D

 29 31  0  0  0  0  0  0  0  0999 V2000
   89.2390  133.4670  120.1373 N   0  0  0  0  0  0  0  0  0  0  0  0
   88.3589  134.2266  120.9987 C   0  0  2  0  0  0  0  0  0  0  0  0
   87.8596  133.3624  122.0994 C   0  0  0  0  0  0  0  0  0  0  0  0
   87.7132  132.1197  121.9672 O   0  0  0  0  0  0  0  0  0  0  0  0
   87.2209  134.8626  120.2276 C   0  0  1  0  0  0  0  0  0  0  0  0
   86.4439  133.8088  119.4650 C   0  0  0  0  0  0  0  0  0  0  0  0
   86.2498  135.5877  121.1166 C   0  0  0  0  0  0  0  0  0  0  0  0
   90.5641  133.1984  120.5458 C   0  0  0  0  0  0  0  0  0  0  0  0
   87.0785  133.0958  124.4156 C   0  0  0  0  0  0  0  0  0  0  0  0
   87.7399  135.8505  119.2055 C   0  0  0  0  0  0  0  0  0  0  0  0
   91.4695  132.2159  120.0442 C   0  0  0  0  0  0  0  0  0  0  0  0
   92.5040  130.0823  117.3457 C   0  0  0  0  0  0  0  0  0  0  0  0
   93.4856  130.6600  116.4151 C   0  0  0  0  0  0  0  0  0  0  0  0
   93.2662  131.9037  115.8610 C   0  0  0  0  0  0  0  0  0  0  0  0
   94.1638  132.4719  114.9887 C   0  0  0  0  0  0  0  0  0  0  0  0
   95.3028  131.7969  114.6564 C   0  0  0  0  0  0  0  0  0  0  0  0
   95.5603  130.5564  115.1851 C   0  0  0  0  0  0  0  0  0  0  0  0
   94.6357  129.9951  116.0704 C   0  0  0  0  0  0  0  0  0  0  0  0
   93.1442  130.8218  119.6467 C   0  0  0  0  0  0  0  0  0  0  0  0
   92.6132  131.6928  120.6032 C   0  0  0  0  0  0  0  0  0  0  0  0
   93.2617  131.8369  121.8062 C   0  0  0  0  0  0  0  0  0  0  0  0
   94.4095  131.1363  122.0511 C   0  0  0  0  0  0  0  0  0  0  0  0
   94.9335  130.2839  121.1152 C   0  0  0  0  0  0  0  0  0  0  0  0
   94.3028  130.1248  119.9127 C   0  0  0  0  0  0  0  0  0  0  0  0
   96.2048  132.3305  113.8006 F   0  0  0  0  0  0  0  0  0  0  0  0
   91.3473  131.6539  118.7939 N   0  0  0  0  0  0  0  0  0  0  0  0
   92.3391  130.8305  118.5611 N   0  0  0  0  0  0  0  0  0  0  0  0
   91.0358  133.9354  121.5122 O   0  0  0  0  0  0  0  0  0  0  0  0
   87.5242  133.8794  123.3437 O   0  0  0  0  0  0  0  0  0  0  0  0
  2  1  1  6
  8  1  1  0
  2  3  1  0
  2  5  1  0
  3  4  2  0
  3 29  1  0
  5  6  1  6
  5  7  1  0
  5 10  1  0
 11  8  1  0
  8 28  2  0
 29  9  1  0
 20 11  1  0
 11 26  2  0
 12 13  1  0
 27 12  1  0
 13 14  2  0
 13 18  1  0
 14 15  1  0
 15 16  2  0
 17 16  1  0
 16 25  1  0
 18 17  2  0
 19 20  2  0
 19 24  1  0
 19 27  1  0
 20 21  1  0
 21 22  2  0
 22 23  1  0
 23 24  2  0
 26 27  1  0
M  END
$$$$
