
     RDKit          3D

 29 31  0  0  0  0  0  0  0  0999 V2000
   90.5713  131.7657  120.2014 N   0  0  0  0  0  0  0  0  0  0  0  0
   89.4850  132.4298  120.8888 C   0  0  2  0  0  0  0  0  0  0  0  0
   89.7272  133.8954  120.9193 C   0  0  0  0  0  0  0  0  0  0  0  0
   90.8844  134.3882  120.8819 O   0  0  0  0  0  0  0  0  0  0  0  0
   89.2677  131.8703  122.2794 C   0  0  1  0  0  0  0  0  0  0  0  0
   89.9104  132.7675  123.3176 C   0  0  0  0  0  0  0  0  0  0  0  0
   87.8127  131.7381  122.6322 C   0  0  0  0  0  0  0  0  0  0  0  0
   90.6815  131.8662  118.7969 C   0  0  0  0  0  0  0  0  0  0  0  0
   88.8716  136.1971  121.0462 C   0  0  0  0  0  0  0  0  0  0  0  0
   89.9054  130.5055  122.4238 C   0  0  0  0  0  0  0  0  0  0  0  0
   91.7137  131.3690  117.9460 C   0  0  0  0  0  0  0  0  0  0  0  0
   94.8014  129.5682  117.5890 C   0  0  0  0  0  0  0  0  0  0  0  0
   95.9939  130.4209  117.7084 C   0  0  0  0  0  0  0  0  0  0  0  0
   97.0232  130.3038  116.7981 C   0  0  0  0  0  0  0  0  0  0  0  0
   98.1506  131.0858  116.8812 C   0  0  0  0  0  0  0  0  0  0  0  0
   98.2637  132.0035  117.8855 C   0  0  0  0  0  0  0  0  0  0  0  0
   97.2625  132.1527  118.8129 C   0  0  0  0  0  0  0  0  0  0  0  0
   96.1239  131.3484  118.7117 C   0  0  0  0  0  0  0  0  0  0  0  0
   92.9976  130.6929  116.2726 C   0  0  0  0  0  0  0  0  0  0  0  0
   91.8153  131.3762  116.5735 C   0  0  0  0  0  0  0  0  0  0  0  0
   91.0607  131.8870  115.5449 C   0  0  0  0  0  0  0  0  0  0  0  0
   91.4684  131.7204  114.2511 C   0  0  0  0  0  0  0  0  0  0  0  0
   92.6251  131.0494  113.9528 C   0  0  0  0  0  0  0  0  0  0  0  0
   93.3914  130.5351  114.9615 C   0  0  0  0  0  0  0  0  0  0  0  0
   99.3613  132.7873  117.9931 F   0  0  0  0  0  0  0  0  0  0  0  0
   92.8168  130.6970  118.4210 N   0  0  0  0  0  0  0  0  0  0  0  0
   93.5740  130.2977  117.4296 N   0  0  0  0  0  0  0  0  0  0  0  0
   89.7218  132.4990  118.1817 O   0  0  0  0  0  0  0  0  0  0  0  0
   88.6850  134.8100  120.9911 O   0  0  0  0  0  0  0  0  0  0  0  0
  2  1  1  1
  8  1  1  0
  2  3  1  0
  2  5  1  0
  3  4  2  0
  3 29  1  0
  5  6  1  1
  5  7  1  0
  5 10  1  0
 11  8  1  0
  8 28  2  0
 29  9  1  0
 20 11  1  0
 11 26  2  0
 12 13  1  0
 27 12  1  0
 13 14  2  0
 13 18  1  0
 14 15  1  0
 15 16  2  0
 17 16  1  0
 16 25  1  0
 18 17  2  0
 19 20  2  0
 19 24  1  0
 19 27  1  0
 20 21  1  0
 21 22  2  0
 22 23  1  0
 23 24  2  0
 26 27  1  0
M  END
$$$$
