
     RDKit          3D

 29 31  0  0  0  0  0  0  0  0999 V2000
   90.9758  133.1169  120.4225 N   0  0  0  0  0  0  0  0  0  0  0  0
   90.1261  133.3205  121.5758 C   0  0  2  0  0  0  0  0  0  0  0  0
   89.2923  134.5348  121.3811 C   0  0  0  0  0  0  0  0  0  0  0  0
   88.1034  134.6082  121.7867 O   0  0  0  0  0  0  0  0  0  0  0  0
   90.9230  133.3903  122.8620 C   0  0  1  0  0  0  0  0  0  0  0  0
   90.8181  132.0835  123.6216 C   0  0  0  0  0  0  0  0  0  0  0  0
   92.3824  133.6630  122.6276 C   0  0  0  0  0  0  0  0  0  0  0  0
   90.6543  132.1160  119.4793 C   0  0  0  0  0  0  0  0  0  0  0  0
   89.0601  136.8594  120.6141 C   0  0  0  0  0  0  0  0  0  0  0  0
   90.3902  134.4728  123.7754 C   0  0  0  0  0  0  0  0  0  0  0  0
   91.3218  131.7929  118.2600 C   0  0  0  0  0  0  0  0  0  0  0  0
   94.3013  131.9283  116.2578 C   0  0  0  0  0  0  0  0  0  0  0  0
   95.3067  130.9245  116.6385 C   0  0  0  0  0  0  0  0  0  0  0  0
   95.7521  130.0045  115.7127 C   0  0  0  0  0  0  0  0  0  0  0  0
   96.6910  129.0541  116.0362 C   0  0  0  0  0  0  0  0  0  0  0  0
   97.2010  129.0114  117.3017 C   0  0  0  0  0  0  0  0  0  0  0  0
   96.7852  129.9085  118.2541 C   0  0  0  0  0  0  0  0  0  0  0  0
   95.8298  130.8675  117.9061 C   0  0  0  0  0  0  0  0  0  0  0  0
   91.9850  130.9882  116.3058 C   0  0  0  0  0  0  0  0  0  0  0  0
   90.9049  131.0300  117.1930 C   0  0  0  0  0  0  0  0  0  0  0  0
   89.7424  130.3781  116.8586 C   0  0  0  0  0  0  0  0  0  0  0  0
   89.6563  129.6996  115.6753 C   0  0  0  0  0  0  0  0  0  0  0  0
   90.7135  129.6548  114.8050 C   0  0  0  0  0  0  0  0  0  0  0  0
   91.8785  130.2982  115.1178 C   0  0  0  0  0  0  0  0  0  0  0  0
   98.1262  128.0875  117.6496 F   0  0  0  0  0  0  0  0  0  0  0  0
   92.6137  132.1816  117.9879 N   0  0  0  0  0  0  0  0  0  0  0  0
   93.0037  131.7039  116.8321 N   0  0  0  0  0  0  0  0  0  0  0  0
   89.6079  131.3839  119.7415 O   0  0  0  0  0  0  0  0  0  0  0  0
   89.7798  135.6641  120.7369 O   0  0  0  0  0  0  0  0  0  0  0  0
  2  1  1  6
  8  1  1  0
  2  3  1  0
  2  5  1  0
  3  4  2  0
  3 29  1  0
  5  6  1  1
  5  7  1  0
  5 10  1  0
 11  8  1  0
  8 28  2  0
 29  9  1  0
 20 11  1  0
 11 26  2  0
 12 13  1  0
 27 12  1  0
 13 14  2  0
 13 18  1  0
 14 15  1  0
 15 16  2  0
 17 16  1  0
 16 25  1  0
 18 17  2  0
 19 20  2  0
 19 24  1  0
 19 27  1  0
 20 21  1  0
 21 22  2  0
 22 23  1  0
 23 24  2  0
 26 27  1  0
M  END
$$$$
