
     RDKit          3D

 29 31  0  0  0  0  0  0  0  0999 V2000
   90.0415  131.3094  119.0603 N   0  0  0  0  0  0  0  0  0  0  0  0
   88.7434  131.9362  119.1858 C   0  0  2  0  0  0  0  0  0  0  0  0
   88.4489  132.2064  120.6168 C   0  0  0  0  0  0  0  0  0  0  0  0
   88.8411  131.4474  121.5406 O   0  0  0  0  0  0  0  0  0  0  0  0
   87.6508  131.1123  118.5363 C   0  0  1  0  0  0  0  0  0  0  0  0
   87.5488  129.7529  119.1976 C   0  0  0  0  0  0  0  0  0  0  0  0
   86.2994  131.7638  118.6274 C   0  0  0  0  0  0  0  0  0  0  0  0
   91.2135  132.0903  119.1677 C   0  0  0  0  0  0  0  0  0  0  0  0
   87.4784  133.6446  122.3591 C   0  0  0  0  0  0  0  0  0  0  0  0
   87.9495  130.8672  117.0732 C   0  0  0  0  0  0  0  0  0  0  0  0
   92.5718  131.6870  118.9978 C   0  0  0  0  0  0  0  0  0  0  0  0
   94.9757  129.6173  117.3119 C   0  0  0  0  0  0  0  0  0  0  0  0
   95.3496  130.1221  115.9819 C   0  0  0  0  0  0  0  0  0  0  0  0
   96.6208  129.9079  115.4918 C   0  0  0  0  0  0  0  0  0  0  0  0
   97.0016  130.3659  114.2530 C   0  0  0  0  0  0  0  0  0  0  0  0
   96.1073  131.0502  113.4814 C   0  0  0  0  0  0  0  0  0  0  0  0
   94.8316  131.2853  113.9308 C   0  0  0  0  0  0  0  0  0  0  0  0
   94.4631  130.8118  115.1932 C   0  0  0  0  0  0  0  0  0  0  0  0
   94.7756  131.4646  118.9850 C   0  0  0  0  0  0  0  0  0  0  0  0
   93.7249  132.1879  119.5579 C   0  0  0  0  0  0  0  0  0  0  0  0
   94.0128  133.1563  120.4894 C   0  0  0  0  0  0  0  0  0  0  0  0
   95.3108  133.4018  120.8401 C   0  0  0  0  0  0  0  0  0  0  0  0
   96.3426  132.6963  120.2790 C   0  0  0  0  0  0  0  0  0  0  0  0
   96.0776  131.7274  119.3516 C   0  0  0  0  0  0  0  0  0  0  0  0
   96.4531  131.5131  112.2580 F   0  0  0  0  0  0  0  0  0  0  0  0
   92.9548  130.6954  118.1236 N   0  0  0  0  0  0  0  0  0  0  0  0
   94.2584  130.5663  118.1174 N   0  0  0  0  0  0  0  0  0  0  0  0
   91.0489  133.3488  119.4655 O   0  0  0  0  0  0  0  0  0  0  0  0
   87.7202  133.3179  121.0188 O   0  0  0  0  0  0  0  0  0  0  0  0
  2  1  1  1
  8  1  1  0
  2  3  1  0
  2  5  1  0
  3  4  2  0
  3 29  1  0
  5  6  1  1
  5  7  1  0
  5 10  1  0
 11  8  1  0
  8 28  2  0
 29  9  1  0
 20 11  1  0
 11 26  2  0
 12 13  1  0
 27 12  1  0
 13 14  2  0
 13 18  1  0
 14 15  1  0
 15 16  2  0
 17 16  1  0
 16 25  1  0
 18 17  2  0
 19 20  2  0
 19 24  1  0
 19 27  1  0
 20 21  1  0
 21 22  2  0
 22 23  1  0
 23 24  2  0
 26 27  1  0
M  END
$$$$
