
     RDKit          3D

 29 31  0  0  0  0  0  0  0  0999 V2000
   92.2446  133.1261  120.4892 N   0  0  0  0  0  0  0  0  0  0  0  0
   92.5291  134.3305  121.2388 C   0  0  2  0  0  0  0  0  0  0  0  0
   91.8472  135.4907  120.6089 C   0  0  0  0  0  0  0  0  0  0  0  0
   91.6886  135.5849  119.3642 O   0  0  0  0  0  0  0  0  0  0  0  0
   94.0177  134.5691  121.3848 C   0  0  1  0  0  0  0  0  0  0  0  0
   94.6951  133.3468  121.9703 C   0  0  0  0  0  0  0  0  0  0  0  0
   94.6885  134.8761  120.0753 C   0  0  0  0  0  0  0  0  0  0  0  0
   90.9541  132.5541  120.5394 C   0  0  0  0  0  0  0  0  0  0  0  0
   90.7067  137.6600  120.8063 C   0  0  0  0  0  0  0  0  0  0  0  0
   94.2956  135.7190  122.3285 C   0  0  0  0  0  0  0  0  0  0  0  0
   90.4750  131.3771  119.8900 C   0  0  0  0  0  0  0  0  0  0  0  0
   91.1529  128.5035  117.8437 C   0  0  0  0  0  0  0  0  0  0  0  0
   91.0661  128.7951  116.4046 C   0  0  0  0  0  0  0  0  0  0  0  0
   90.7080  127.8021  115.5170 C   0  0  0  0  0  0  0  0  0  0  0  0
   90.6171  128.0419  114.1666 C   0  0  0  0  0  0  0  0  0  0  0  0
   90.8857  129.2896  113.6823 C   0  0  0  0  0  0  0  0  0  0  0  0
   91.2457  130.3069  114.5310 C   0  0  0  0  0  0  0  0  0  0  0  0
   91.3327  130.0436  115.9009 C   0  0  0  0  0  0  0  0  0  0  0  0
   89.3466  129.6123  119.1700 C   0  0  0  0  0  0  0  0  0  0  0  0
   89.2382  130.7754  119.9389 C   0  0  0  0  0  0  0  0  0  0  0  0
   88.0332  131.0749  120.5277 C   0  0  0  0  0  0  0  0  0  0  0  0
   86.9649  130.2391  120.3598 C   0  0  0  0  0  0  0  0  0  0  0  0
   87.0685  129.0978  119.6090 C   0  0  0  0  0  0  0  0  0  0  0  0
   88.2578  128.7824  119.0131 C   0  0  0  0  0  0  0  0  0  0  0  0
   90.8047  129.5557  112.3582 F   0  0  0  0  0  0  0  0  0  0  0  0
   91.2744  130.5757  119.1072 N   0  0  0  0  0  0  0  0  0  0  0  0
   90.6050  129.5326  118.6833 N   0  0  0  0  0  0  0  0  0  0  0  0
   90.0702  133.1756  121.2689 O   0  0  0  0  0  0  0  0  0  0  0  0
   91.3432  136.5429  121.3617 O   0  0  0  0  0  0  0  0  0  0  0  0
  2  1  1  6
  8  1  1  0
  2  3  1  0
  2  5  1  0
  3  4  2  0
  3 29  1  0
  5  6  1  1
  5  7  1  0
  5 10  1  0
 11  8  1  0
  8 28  2  0
 29  9  1  0
 20 11  1  0
 11 26  2  0
 12 13  1  0
 27 12  1  0
 13 14  2  0
 13 18  1  0
 14 15  1  0
 15 16  2  0
 17 16  1  0
 16 25  1  0
 18 17  2  0
 19 20  2  0
 19 24  1  0
 19 27  1  0
 20 21  1  0
 21 22  2  0
 22 23  1  0
 23 24  2  0
 26 27  1  0
M  END
$$$$
