
     RDKit          3D

 29 31  0  0  0  0  0  0  0  0999 V2000
   91.6637  133.0016  119.7580 N   0  0  0  0  0  0  0  0  0  0  0  0
   91.7700  133.2864  121.1726 C   0  0  2  0  0  0  0  0  0  0  0  0
   90.7649  134.3102  121.5589 C   0  0  0  0  0  0  0  0  0  0  0  0
   90.4978  135.3010  120.8307 O   0  0  0  0  0  0  0  0  0  0  0  0
   93.1723  133.7050  121.5630 C   0  0  1  0  0  0  0  0  0  0  0  0
   93.6006  134.9242  120.7719 C   0  0  0  0  0  0  0  0  0  0  0  0
   93.2926  134.0454  123.0219 C   0  0  0  0  0  0  0  0  0  0  0  0
   90.7890  131.9882  119.3077 C   0  0  0  0  0  0  0  0  0  0  0  0
   89.1026  135.1739  123.1516 C   0  0  0  0  0  0  0  0  0  0  0  0
   94.1725  132.6109  121.2584 C   0  0  0  0  0  0  0  0  0  0  0  0
   90.6779  131.4218  118.0026 C   0  0  0  0  0  0  0  0  0  0  0  0
   92.1165  130.8752  114.7566 C   0  0  0  0  0  0  0  0  0  0  0  0
   93.4254  130.2268  114.9283 C   0  0  0  0  0  0  0  0  0  0  0  0
   93.6557  128.9779  114.3905 C   0  0  0  0  0  0  0  0  0  0  0  0
   94.8675  128.3450  114.5325 C   0  0  0  0  0  0  0  0  0  0  0  0
   95.8739  128.9590  115.2207 C   0  0  0  0  0  0  0  0  0  0  0  0
   95.6872  130.2023  115.7721 C   0  0  0  0  0  0  0  0  0  0  0  0
   94.4480  130.8298  115.6171 C   0  0  0  0  0  0  0  0  0  0  0  0
   90.1422  130.2906  116.1751 C   0  0  0  0  0  0  0  0  0  0  0  0
   89.7124  130.5984  117.4697 C   0  0  0  0  0  0  0  0  0  0  0  0
   88.5191  130.0831  117.9157 C   0  0  0  0  0  0  0  0  0  0  0  0
   87.7740  129.2803  117.0981 C   0  0  0  0  0  0  0  0  0  0  0  0
   88.1935  128.9751  115.8300 C   0  0  0  0  0  0  0  0  0  0  0  0
   89.3768  129.4790  115.3663 C   0  0  0  0  0  0  0  0  0  0  0  0
   97.0775  128.3609  115.3769 F   0  0  0  0  0  0  0  0  0  0  0  0
   91.6398  131.5837  117.0317 N   0  0  0  0  0  0  0  0  0  0  0  0
   91.3210  130.9134  115.9524 N   0  0  0  0  0  0  0  0  0  0  0  0
   89.9637  131.4978  120.1898 O   0  0  0  0  0  0  0  0  0  0  0  0
   90.0589  134.2319  122.7519 O   0  0  0  0  0  0  0  0  0  0  0  0
  2  1  1  6
  8  1  1  0
  2  3  1  0
  2  5  1  0
  3  4  2  0
  3 29  1  0
  5  6  1  6
  5  7  1  0
  5 10  1  0
 11  8  1  0
  8 28  2  0
 29  9  1  0
 20 11  1  0
 11 26  2  0
 12 13  1  0
 27 12  1  0
 13 14  2  0
 13 18  1  0
 14 15  1  0
 15 16  2  0
 17 16  1  0
 16 25  1  0
 18 17  2  0
 19 20  2  0
 19 24  1  0
 19 27  1  0
 20 21  1  0
 21 22  2  0
 22 23  1  0
 23 24  2  0
 26 27  1  0
M  END
$$$$
