
     RDKit          3D

 29 31  0  0  0  0  0  0  0  0999 V2000
   89.9446  133.1786  117.7797 N   0  0  0  0  0  0  0  0  0  0  0  0
   89.3300  132.7083  116.5571 C   0  0  2  0  0  0  0  0  0  0  0  0
   88.8178  131.3267  116.7479 C   0  0  0  0  0  0  0  0  0  0  0  0
   89.4146  130.4791  117.4611 O   0  0  0  0  0  0  0  0  0  0  0  0
   90.2756  132.7957  115.3771 C   0  0  1  0  0  0  0  0  0  0  0  0
   89.5445  132.4801  114.0881 C   0  0  0  0  0  0  0  0  0  0  0  0
   90.8934  134.1576  115.2267 C   0  0  0  0  0  0  0  0  0  0  0  0
   89.7261  132.4837  118.9898 C   0  0  0  0  0  0  0  0  0  0  0  0
   87.0807  129.6276  116.3725 C   0  0  0  0  0  0  0  0  0  0  0  0
   91.3984  131.7888  115.5025 C   0  0  0  0  0  0  0  0  0  0  0  0
   90.6448  132.2350  120.0532 C   0  0  0  0  0  0  0  0  0  0  0  0
   93.9560  132.5895  121.4003 C   0  0  0  0  0  0  0  0  0  0  0  0
   94.8733  131.5503  120.9080 C   0  0  0  0  0  0  0  0  0  0  0  0
   94.6549  130.9579  119.6820 C   0  0  0  0  0  0  0  0  0  0  0  0
   95.4933  129.9845  119.1930 C   0  0  0  0  0  0  0  0  0  0  0  0
   96.5708  129.5877  119.9311 C   0  0  0  0  0  0  0  0  0  0  0  0
   96.8250  130.1514  121.1568 C   0  0  0  0  0  0  0  0  0  0  0  0
   95.9611  131.1397  121.6371 C   0  0  0  0  0  0  0  0  0  0  0  0
   91.6697  131.7422  121.9539 C   0  0  0  0  0  0  0  0  0  0  0  0
   90.4392  131.6740  121.2930 C   0  0  0  0  0  0  0  0  0  0  0  0
   89.3676  131.1039  121.9372 C   0  0  0  0  0  0  0  0  0  0  0  0
   89.5139  130.6172  123.2060 C   0  0  0  0  0  0  0  0  0  0  0  0
   90.7176  130.6845  123.8570 C   0  0  0  0  0  0  0  0  0  0  0  0
   91.7967  131.2461  123.2332 C   0  0  0  0  0  0  0  0  0  0  0  0
   97.4137  128.6321  119.4762 F   0  0  0  0  0  0  0  0  0  0  0  0
   91.9668  132.6146  120.0047 N   0  0  0  0  0  0  0  0  0  0  0  0
   92.5704  132.3226  121.1300 N   0  0  0  0  0  0  0  0  0  0  0  0
   88.5315  131.9944  119.1722 O   0  0  0  0  0  0  0  0  0  0  0  0
   87.6449  130.8895  116.1470 O   0  0  0  0  0  0  0  0  0  0  0  0
  2  1  1  1
  8  1  1  0
  2  3  1  0
  2  5  1  0
  3  4  2  0
  3 29  1  0
  5  6  1  6
  5  7  1  0
  5 10  1  0
 11  8  1  0
  8 28  2  0
 29  9  1  0
 20 11  1  0
 11 26  2  0
 12 13  1  0
 27 12  1  0
 13 14  2  0
 13 18  1  0
 14 15  1  0
 15 16  2  0
 17 16  1  0
 16 25  1  0
 18 17  2  0
 19 20  2  0
 19 24  1  0
 19 27  1  0
 20 21  1  0
 21 22  2  0
 22 23  1  0
 23 24  2  0
 26 27  1  0
M  END
$$$$
