
     RDKit          3D

 29 31  0  0  0  0  0  0  0  0999 V2000
   90.3560  134.4051  119.9734 N   0  0  0  0  0  0  0  0  0  0  0  0
   89.0500  134.5252  120.5844 C   0  0  2  0  0  0  0  0  0  0  0  0
   89.1384  134.2059  122.0328 C   0  0  0  0  0  0  0  0  0  0  0  0
   89.9336  133.3420  122.4852 O   0  0  0  0  0  0  0  0  0  0  0  0
   88.0158  133.6673  119.8852 C   0  0  1  0  0  0  0  0  0  0  0  0
   88.0816  133.8751  118.3858 C   0  0  0  0  0  0  0  0  0  0  0  0
   88.2038  132.1995  120.1486 C   0  0  0  0  0  0  0  0  0  0  0  0
   91.2734  133.4458  120.4561 C   0  0  0  0  0  0  0  0  0  0  0  0
   88.5986  134.8184  124.3521 C   0  0  0  0  0  0  0  0  0  0  0  0
   86.6148  134.0402  120.3188 C   0  0  0  0  0  0  0  0  0  0  0  0
   92.4264  132.9099  119.8079 C   0  0  0  0  0  0  0  0  0  0  0  0
   94.5413  132.7841  116.9069 C   0  0  0  0  0  0  0  0  0  0  0  0
   94.2345  131.6927  115.9698 C   0  0  0  0  0  0  0  0  0  0  0  0
   95.2547  130.9500  115.4136 C   0  0  0  0  0  0  0  0  0  0  0  0
   95.0019  129.9233  114.5353 C   0  0  0  0  0  0  0  0  0  0  0  0
   93.7132  129.6237  114.1991 C   0  0  0  0  0  0  0  0  0  0  0  0
   92.6677  130.3379  114.7297 C   0  0  0  0  0  0  0  0  0  0  0  0
   92.9449  131.3782  115.6210 C   0  0  0  0  0  0  0  0  0  0  0  0
   94.3341  131.9331  119.2488 C   0  0  0  0  0  0  0  0  0  0  0  0
   93.4124  132.0797  120.2902 C   0  0  0  0  0  0  0  0  0  0  0  0
   93.6361  131.4213  121.4754 C   0  0  0  0  0  0  0  0  0  0  0  0
   94.7480  130.6404  121.6233 C   0  0  0  0  0  0  0  0  0  0  0  0
   95.6540  130.4966  120.6057 C   0  0  0  0  0  0  0  0  0  0  0  0
   95.4492  131.1415  119.4177 C   0  0  0  0  0  0  0  0  0  0  0  0
   93.4332  128.6189  113.3373 F   0  0  0  0  0  0  0  0  0  0  0  0
   92.7756  133.2303  118.5158 N   0  0  0  0  0  0  0  0  0  0  0  0
   93.9043  132.6519  118.1878 N   0  0  0  0  0  0  0  0  0  0  0  0
   91.0476  132.9740  121.6503 O   0  0  0  0  0  0  0  0  0  0  0  0
   88.3444  134.8458  122.9751 O   0  0  0  0  0  0  0  0  0  0  0  0
  2  1  1  6
  8  1  1  0
  2  3  1  0
  2  5  1  0
  3  4  2  0
  3 29  1  0
  5  6  1  6
  5  7  1  0
  5 10  1  0
 11  8  1  0
  8 28  2  0
 29  9  1  0
 20 11  1  0
 11 26  2  0
 12 13  1  0
 27 12  1  0
 13 14  2  0
 13 18  1  0
 14 15  1  0
 15 16  2  0
 17 16  1  0
 16 25  1  0
 18 17  2  0
 19 20  2  0
 19 24  1  0
 19 27  1  0
 20 21  1  0
 21 22  2  0
 22 23  1  0
 23 24  2  0
 26 27  1  0
M  END
$$$$
