
     RDKit          3D

 34 36  0  0  0  0  0  0  0  0999 V2000
   11.5031   13.0189  157.3772 C   0  0  0  0  0  0  0  0  0  0  0  0
   13.0969   19.0394  158.8154 C   0  0  0  0  0  0  0  0  0  0  0  0
   10.0726   14.0270  158.8819 C   0  0  0  0  0  0  0  0  0  0  0  0
   10.0228   14.5471  160.2428 C   0  0  0  0  0  0  0  0  0  0  0  0
    9.6496   15.8434  160.4908 C   0  0  0  0  0  0  0  0  0  0  0  0
    9.6124   16.3339  161.7829 C   0  0  0  0  0  0  0  0  0  0  0  0
    9.9505   15.5234  162.8369 C   0  0  0  0  0  0  0  0  0  0  0  0
   10.3237   14.2204  162.5658 C   0  0  0  0  0  0  0  0  0  0  0  0
   10.3769   13.6864  161.3018 C   0  0  0  0  0  0  0  0  0  0  0  0
   12.0160   12.0396  160.4163 C   0  0  0  0  0  0  0  0  0  0  0  0
   10.2745   10.0019  162.6475 C   0  0  0  0  0  0  0  0  0  0  0  0
   11.2276   15.3959  157.2984 C   0  0  0  0  0  0  0  0  0  0  0  0
   10.1422   10.3400  163.9821 C   0  0  0  0  0  0  0  0  0  0  0  0
   10.6123    9.5118  164.9791 C   0  0  0  0  0  0  0  0  0  0  0  0
   11.2326    8.3135  164.6714 C   0  0  0  0  0  0  0  0  0  0  0  0
   11.3703    7.9669  163.3613 C   0  0  0  0  0  0  0  0  0  0  0  0
   10.8951    8.8048  162.3636 C   0  0  0  0  0  0  0  0  0  0  0  0
   12.1313    8.0864  166.9460 C   0  0  0  0  0  0  0  0  0  0  0  0
   11.9897   11.7499  158.9576 C   0  0  0  0  0  0  0  0  0  0  0  0
   11.8780   16.6314  157.7755 C   0  0  0  0  0  0  0  0  0  0  0  0
   11.0064   17.7861  158.1294 C   0  0  0  0  0  0  0  0  0  0  0  0
   11.7460   18.9854  158.5907 C   0  0  0  0  0  0  0  0  0  0  0  0
   11.0253   20.1485  158.8262 C   0  0  0  0  0  0  0  0  0  0  0  0
   11.6302   21.3098  159.2660 C   0  0  0  0  0  0  0  0  0  0  0  0
   12.9908   21.3455  159.4870 C   0  0  0  0  0  0  0  0  0  0  0  0
   13.7206   20.2098  159.2610 C   0  0  0  0  0  0  0  0  0  0  0  0
   11.3078   14.2415  158.1570 N   0  0  2  0  0  4  0  0  0  0  0  0
   10.7460   12.3426  161.0194 N   0  0  0  0  0  0  0  0  0  0  0  0
   12.9604   12.4505  158.2506 O   0  0  0  0  0  0  0  0  0  0  0  0
    8.2804   11.4936  161.6272 O   0  0  0  0  0  0  0  0  0  0  0  0
   11.6783    7.5352  165.7299 O   0  0  0  0  0  0  0  0  0  0  0  0
    9.6576   10.1507  160.1176 O   0  0  0  0  0  0  0  0  0  0  0  0
    9.6818   11.0266  161.3634 S   0  0  2  0  0  6  0  0  0  0  0  0
   13.7589   22.8362  160.0508 Cl  0  0  0  0  0  0  0  0  0  0  0  0
 27  1  1  6
 22  2  2  0
  2 26  1  0
  4  3  1  0
  3 27  1  0
  4  5  2  0
  9  4  1  0
  5  6  1  0
  7  6  2  0
  8  7  1  0
  9  8  2  0
 28  9  1  0
 10 19  1  0
 28 10  1  0
 11 13  2  0
 11 17  1  0
 33 11  1  0
 12 20  1  0
 27 12  1  0
 13 14  1  0
 14 15  2  0
 16 15  1  0
 15 31  1  0
 17 16  2  0
 31 18  1  0
 19 29  1  0
 20 21  1  0
 21 22  1  0
 22 23  1  0
 23 24  2  0
 24 25  1  0
 26 25  2  0
 25 34  1  0
 33 28  1  6
 33 30  2  0
 33 32  2  0
M  CHG  1  27   1
M  END
$$$$
