
     RDKit          3D

 34 36  0  0  0  0  0  0  0  0999 V2000
   10.0418   15.8985  159.4880 C   0  0  0  0  0  0  0  0  0  0  0  0
   11.1260   22.0643  157.7513 C   0  0  0  0  0  0  0  0  0  0  0  0
   12.2207   15.6788  160.2168 C   0  0  0  0  0  0  0  0  0  0  0  0
   11.8818   15.3077  161.5852 C   0  0  0  0  0  0  0  0  0  0  0  0
   12.0891   16.1774  162.6253 C   0  0  0  0  0  0  0  0  0  0  0  0
   11.7738   15.8169  163.9223 C   0  0  0  0  0  0  0  0  0  0  0  0
   11.2468   14.5775  164.1836 C   0  0  0  0  0  0  0  0  0  0  0  0
   11.0456   13.7159  163.1216 C   0  0  0  0  0  0  0  0  0  0  0  0
   11.3422   14.0260  161.8172 C   0  0  0  0  0  0  0  0  0  0  0  0
   11.7851   13.3647  159.4615 C   0  0  0  0  0  0  0  0  0  0  0  0
   10.3047   10.8623  162.2867 C   0  0  0  0  0  0  0  0  0  0  0  0
   11.1918   17.8351  160.3001 C   0  0  0  0  0  0  0  0  0  0  0  0
   11.2891    9.8940  162.3651 C   0  0  0  0  0  0  0  0  0  0  0  0
   11.4832    9.1638  163.5185 C   0  0  0  0  0  0  0  0  0  0  0  0
   10.6950    9.3801  164.6353 C   0  0  0  0  0  0  0  0  0  0  0  0
    9.7212   10.3305  164.5733 C   0  0  0  0  0  0  0  0  0  0  0  0
    9.5316   11.0611  163.4100 C   0  0  0  0  0  0  0  0  0  0  0  0
   11.3402    7.2526  165.6795 C   0  0  0  0  0  0  0  0  0  0  0  0
   12.9597   12.4944  159.1873 C   0  0  0  0  0  0  0  0  0  0  0  0
   11.9692   18.9919  159.8158 C   0  0  0  0  0  0  0  0  0  0  0  0
   11.4754   19.7066  158.6060 C   0  0  0  0  0  0  0  0  0  0  0  0
   11.6444   21.1785  158.6597 C   0  0  0  0  0  0  0  0  0  0  0  0
   12.3909   21.7142  159.7004 C   0  0  0  0  0  0  0  0  0  0  0  0
   12.6076   23.0729  159.8242 C   0  0  0  0  0  0  0  0  0  0  0  0
   12.0784   23.9492  158.9004 C   0  0  0  0  0  0  0  0  0  0  0  0
   11.3388   23.4423  157.8663 C   0  0  0  0  0  0  0  0  0  0  0  0
   11.3211   16.6050  159.5609 N   0  0  2  0  0  4  0  0  0  0  0  0
   11.1232   13.1485  160.7199 N   0  0  0  0  0  0  0  0  0  0  0  0
   13.6129   12.8260  158.0057 O   0  0  0  0  0  0  0  0  0  0  0  0
    8.6076   12.2317  160.7097 O   0  0  0  0  0  0  0  0  0  0  0  0
   10.9519    8.6057  165.7574 O   0  0  0  0  0  0  0  0  0  0  0  0
   10.3655   10.8802  159.6793 O   0  0  0  0  0  0  0  0  0  0  0  0
   10.0409   11.8083  160.8426 S   0  0  2  0  0  6  0  0  0  0  0  0
   12.3603   25.6881  159.0647 Cl  0  0  0  0  0  0  0  0  0  0  0  0
 27  1  1  1
 22  2  2  0
  2 26  1  0
  4  3  1  0
  3 27  1  0
  4  5  2  0
  9  4  1  0
  5  6  1  0
  7  6  2  0
  8  7  1  0
  9  8  2  0
 28  9  1  0
 10 19  1  0
 28 10  1  0
 11 13  2  0
 11 17  1  0
 33 11  1  0
 12 20  1  0
 27 12  1  0
 13 14  1  0
 14 15  2  0
 16 15  1  0
 15 31  1  0
 17 16  2  0
 31 18  1  0
 19 29  1  0
 20 21  1  0
 21 22  1  0
 22 23  1  0
 23 24  2  0
 24 25  1  0
 26 25  2  0
 25 34  1  0
 33 28  1  1
 33 30  2  0
 33 32  2  0
M  CHG  1  27   1
M  END
$$$$
