
     RDKit          3D

 34 36  0  0  0  0  0  0  0  0999 V2000
    9.2576   12.0632  159.0476 C   0  0  0  0  0  0  0  0  0  0  0  0
   12.3090    8.3625  163.1608 C   0  0  0  0  0  0  0  0  0  0  0  0
   10.2889   13.9150  159.9609 C   0  0  0  0  0  0  0  0  0  0  0  0
    9.4817   14.6141  160.9533 C   0  0  0  0  0  0  0  0  0  0  0  0
    8.2746   14.1096  161.3649 C   0  0  0  0  0  0  0  0  0  0  0  0
    7.5091   14.7812  162.3001 C   0  0  0  0  0  0  0  0  0  0  0  0
    7.9524   15.9667  162.8293 C   0  0  0  0  0  0  0  0  0  0  0  0
    9.1715   16.4580  162.4015 C   0  0  0  0  0  0  0  0  0  0  0  0
    9.9680   15.8298  161.4759 C   0  0  0  0  0  0  0  0  0  0  0  0
   12.0947   15.5172  160.2260 C   0  0  0  0  0  0  0  0  0  0  0  0
   11.3785   19.1182  160.3214 C   0  0  0  0  0  0  0  0  0  0  0  0
   11.5570   11.9059  159.6956 C   0  0  0  0  0  0  0  0  0  0  0  0
   10.0788   19.3372  159.9020 C   0  0  0  0  0  0  0  0  0  0  0  0
    9.7818   20.3136  158.9749 C   0  0  0  0  0  0  0  0  0  0  0  0
   10.7802   21.1056  158.4353 C   0  0  0  0  0  0  0  0  0  0  0  0
   12.0652   20.9017  158.8384 C   0  0  0  0  0  0  0  0  0  0  0  0
   12.3567   19.9178  159.7712 C   0  0  0  0  0  0  0  0  0  0  0  0
   10.9224   23.3767  157.5105 C   0  0  0  0  0  0  0  0  0  0  0  0
   13.0908   16.2579  159.4067 C   0  0  0  0  0  0  0  0  0  0  0  0
   12.3459   11.3473  160.8104 C   0  0  0  0  0  0  0  0  0  0  0  0
   12.1276    9.9191  161.1720 C   0  0  0  0  0  0  0  0  0  0  0  0
   12.3556    9.6144  162.6049 C   0  0  0  0  0  0  0  0  0  0  0  0
   12.6297   10.6706  163.4633 C   0  0  0  0  0  0  0  0  0  0  0  0
   12.8464   10.4806  164.8142 C   0  0  0  0  0  0  0  0  0  0  0  0
   12.7952    9.2137  165.3561 C   0  0  0  0  0  0  0  0  0  0  0  0
   12.5266    8.1579  164.5276 C   0  0  0  0  0  0  0  0  0  0  0  0
   10.2712   12.4682  160.0221 N   0  0  2  0  0  4  0  0  0  0  0  0
   11.2293   16.3240  161.0437 N   0  0  0  0  0  0  0  0  0  0  0  0
   12.7416   16.3247  158.0627 O   0  0  0  0  0  0  0  0  0  0  0  0
   11.3219   18.2742  162.8761 O   0  0  0  0  0  0  0  0  0  0  0  0
   10.4018   22.0664  157.5087 O   0  0  0  0  0  0  0  0  0  0  0  0
   13.3055   17.8299  161.5172 O   0  0  0  0  0  0  0  0  0  0  0  0
   11.7838   17.8948  161.4999 S   0  0  2  0  0  6  0  0  0  0  0  0
   13.0732    8.9778  167.0874 Cl  0  0  0  0  0  0  0  0  0  0  0  0
 27  1  1  6
 22  2  2  0
  2 26  1  0
  4  3  1  0
  3 27  1  0
  4  5  2  0
  9  4  1  0
  5  6  1  0
  7  6  2  0
  8  7  1  0
  9  8  2  0
 28  9  1  0
 10 19  1  0
 28 10  1  0
 11 13  2  0
 11 17  1  0
 33 11  1  0
 12 20  1  0
 27 12  1  0
 13 14  1  0
 14 15  2  0
 16 15  1  0
 15 31  1  0
 17 16  2  0
 31 18  1  0
 19 29  1  0
 20 21  1  0
 21 22  1  0
 22 23  1  0
 23 24  2  0
 24 25  1  0
 26 25  2  0
 25 34  1  0
 33 28  1  6
 33 30  2  0
 33 32  2  0
M  CHG  1  27   1
M  END
$$$$
