
     RDKit          3D

 34 36  0  0  0  0  0  0  0  0999 V2000
   11.4077   16.4346  158.4015 C   0  0  0  0  0  0  0  0  0  0  0  0
   11.2507   22.0544  161.2477 C   0  0  0  0  0  0  0  0  0  0  0  0
   11.0649   15.1664  160.2992 C   0  0  0  0  0  0  0  0  0  0  0  0
   12.1765   14.5467  161.0099 C   0  0  0  0  0  0  0  0  0  0  0  0
   13.0228   15.2947  161.7879 C   0  0  0  0  0  0  0  0  0  0  0  0
   14.0808   14.7031  162.4530 C   0  0  0  0  0  0  0  0  0  0  0  0
   14.2958   13.3528  162.3408 C   0  0  0  0  0  0  0  0  0  0  0  0
   13.4316   12.6168  161.5521 C   0  0  0  0  0  0  0  0  0  0  0  0
   12.3679   13.1567  160.8719 C   0  0  0  0  0  0  0  0  0  0  0  0
   11.7324   12.1807  158.6750 C   0  0  0  0  0  0  0  0  0  0  0  0
   10.2712   10.9586  162.2711 C   0  0  0  0  0  0  0  0  0  0  0  0
   10.1568   17.3761  160.2128 C   0  0  0  0  0  0  0  0  0  0  0  0
    9.8848   11.5370  163.4665 C   0  0  0  0  0  0  0  0  0  0  0  0
   10.0921   10.8970  164.6701 C   0  0  0  0  0  0  0  0  0  0  0  0
   10.6953    9.6523  164.7162 C   0  0  0  0  0  0  0  0  0  0  0  0
   11.0816    9.0700  163.5470 C   0  0  0  0  0  0  0  0  0  0  0  0
   10.8700    9.7194  162.3401 C   0  0  0  0  0  0  0  0  0  0  0  0
   11.5983    7.8825  166.1603 C   0  0  0  0  0  0  0  0  0  0  0  0
   13.1187   12.4734  158.2225 C   0  0  0  0  0  0  0  0  0  0  0  0
   10.2770   18.8106  159.8886 C   0  0  0  0  0  0  0  0  0  0  0  0
   11.3095   19.6045  160.6109 C   0  0  0  0  0  0  0  0  0  0  0  0
   11.2796   21.0558  160.3096 C   0  0  0  0  0  0  0  0  0  0  0  0
   11.2707   21.4477  158.9777 C   0  0  0  0  0  0  0  0  0  0  0  0
   11.2343   22.7772  158.6046 C   0  0  0  0  0  0  0  0  0  0  0  0
   11.2052   23.7686  159.5626 C   0  0  0  0  0  0  0  0  0  0  0  0
   11.2135   23.4043  160.8819 C   0  0  0  0  0  0  0  0  0  0  0  0
   11.2667   16.5299  159.8548 N   0  0  2  0  0  4  0  0  0  0  0  0
   11.4677   12.4013  160.0714 N   0  0  0  0  0  0  0  0  0  0  0  0
   13.3177   12.1917  156.8757 O   0  0  0  0  0  0  0  0  0  0  0  0
    8.9176   12.7627  160.8030 O   0  0  0  0  0  0  0  0  0  0  0  0
   10.8687    9.0731  165.9649 O   0  0  0  0  0  0  0  0  0  0  0  0
    9.5672   10.6390  159.7801 O   0  0  0  0  0  0  0  0  0  0  0  0
   10.0144   11.7414  160.7312 S   0  0  2  0  0  6  0  0  0  0  0  0
   11.1581   25.4694  159.0775 Cl  0  0  0  0  0  0  0  0  0  0  0  0
 27  1  1  6
 22  2  2  0
  2 26  1  0
  4  3  1  0
  3 27  1  0
  4  5  2  0
  9  4  1  0
  5  6  1  0
  7  6  2  0
  8  7  1  0
  9  8  2  0
 28  9  1  0
 10 19  1  0
 28 10  1  0
 11 13  2  0
 11 17  1  0
 33 11  1  0
 12 20  1  0
 27 12  1  0
 13 14  1  0
 14 15  2  0
 16 15  1  0
 15 31  1  0
 17 16  2  0
 31 18  1  0
 19 29  1  0
 20 21  1  0
 21 22  1  0
 22 23  1  0
 23 24  2  0
 24 25  1  0
 26 25  2  0
 25 34  1  0
 33 28  1  6
 33 30  2  0
 33 32  2  0
M  CHG  1  27   1
M  END
$$$$
