
     RDKit          3D

 34 36  0  0  0  0  0  0  0  0999 V2000
   10.3508   11.5097  159.4393 C   0  0  0  0  0  0  0  0  0  0  0  0
   12.0175   17.3603  156.2844 C   0  0  0  0  0  0  0  0  0  0  0  0
   12.5588   11.5343  160.1111 C   0  0  0  0  0  0  0  0  0  0  0  0
   12.0674   10.4870  160.9981 C   0  0  0  0  0  0  0  0  0  0  0  0
   12.1364    9.1656  160.6374 C   0  0  0  0  0  0  0  0  0  0  0  0
   11.6611    8.1769  161.4790 C   0  0  0  0  0  0  0  0  0  0  0  0
   11.1121    8.5101  162.6914 C   0  0  0  0  0  0  0  0  0  0  0  0
   11.0520    9.8473  163.0361 C   0  0  0  0  0  0  0  0  0  0  0  0
   11.5095   10.8655  162.2363 C   0  0  0  0  0  0  0  0  0  0  0  0
   12.6725   13.0081  162.7253 C   0  0  0  0  0  0  0  0  0  0  0  0
    8.5827   12.0081  162.6212 C   0  0  0  0  0  0  0  0  0  0  0  0
   11.7565   13.3136  158.7306 C   0  0  0  0  0  0  0  0  0  0  0  0
    7.8922   12.0127  161.4228 C   0  0  0  0  0  0  0  0  0  0  0  0
    6.8086   11.1848  161.2191 C   0  0  0  0  0  0  0  0  0  0  0  0
    6.3792   10.3220  162.2123 C   0  0  0  0  0  0  0  0  0  0  0  0
    7.0492   10.3062  163.3982 C   0  0  0  0  0  0  0  0  0  0  0  0
    8.1382   11.1416  163.5962 C   0  0  0  0  0  0  0  0  0  0  0  0
    4.3810    9.7992  160.8832 C   0  0  0  0  0  0  0  0  0  0  0  0
   12.5518   14.4645  162.4481 C   0  0  0  0  0  0  0  0  0  0  0  0
   12.0173   13.7091  157.3332 C   0  0  0  0  0  0  0  0  0  0  0  0
   11.3962   14.9688  156.8378 C   0  0  0  0  0  0  0  0  0  0  0  0
   12.3573   16.0786  156.6309 C   0  0  0  0  0  0  0  0  0  0  0  0
   13.7104   15.8106  156.7882 C   0  0  0  0  0  0  0  0  0  0  0  0
   14.6764   16.7812  156.6065 C   0  0  0  0  0  0  0  0  0  0  0  0
   14.3158   18.0655  156.2577 C   0  0  0  0  0  0  0  0  0  0  0  0
   12.9869   18.3516  156.0976 C   0  0  0  0  0  0  0  0  0  0  0  0
   11.6935   11.9013  159.0093 N   0  0  2  0  0  4  0  0  0  0  0  0
   11.4630   12.2412  162.5930 N   0  0  0  0  0  0  0  0  0  0  0  0
   13.7675   15.1333  162.5365 O   0  0  0  0  0  0  0  0  0  0  0  0
    9.9284   13.6499  164.2751 O   0  0  0  0  0  0  0  0  0  0  0  0
    5.2820    9.5207  161.9313 O   0  0  0  0  0  0  0  0  0  0  0  0
    9.8507   14.1656  161.8862 O   0  0  0  0  0  0  0  0  0  0  0  0
    9.9634   13.0390  162.9051 S   0  0  2  0  0  6  0  0  0  0  0  0
   15.5584   19.3036  156.0261 Cl  0  0  0  0  0  0  0  0  0  0  0  0
 27  1  1  1
 22  2  2  0
  2 26  1  0
  4  3  1  0
  3 27  1  0
  4  5  2  0
  9  4  1  0
  5  6  1  0
  7  6  2  0
  8  7  1  0
  9  8  2  0
 28  9  1  0
 10 19  1  0
 28 10  1  0
 11 13  2  0
 11 17  1  0
 33 11  1  0
 12 20  1  0
 27 12  1  0
 13 14  1  0
 14 15  2  0
 16 15  1  0
 15 31  1  0
 17 16  2  0
 31 18  1  0
 19 29  1  0
 20 21  1  0
 21 22  1  0
 22 23  1  0
 23 24  2  0
 24 25  1  0
 26 25  2  0
 25 34  1  0
 33 28  1  6
 33 30  2  0
 33 32  2  0
M  CHG  1  27   1
M  END
$$$$
