
     RDKit          3D

 34 36  0  0  0  0  0  0  0  0999 V2000
   12.4100   13.4913  160.2376 C   0  0  0  0  0  0  0  0  0  0  0  0
   10.4942   10.3858  164.8676 C   0  0  0  0  0  0  0  0  0  0  0  0
   10.3552   14.2885  159.5526 C   0  0  0  0  0  0  0  0  0  0  0  0
   11.0701   15.0050  158.5035 C   0  0  0  0  0  0  0  0  0  0  0  0
   11.0680   14.5502  157.2096 C   0  0  0  0  0  0  0  0  0  0  0  0
   11.7548   15.2291  156.2201 C   0  0  0  0  0  0  0  0  0  0  0  0
   12.4497   16.3721  156.5247 C   0  0  0  0  0  0  0  0  0  0  0  0
   12.4392   16.8138  157.8345 C   0  0  0  0  0  0  0  0  0  0  0  0
   11.7736   16.1759  158.8522 C   0  0  0  0  0  0  0  0  0  0  0  0
   12.4620   15.9306  161.2290 C   0  0  0  0  0  0  0  0  0  0  0  0
   11.4039   19.4838  159.8585 C   0  0  0  0  0  0  0  0  0  0  0  0
   10.4368   12.7083  161.3446 C   0  0  0  0  0  0  0  0  0  0  0  0
   10.8572   19.9316  158.6696 C   0  0  0  0  0  0  0  0  0  0  0  0
   11.3116   21.0834  158.0631 C   0  0  0  0  0  0  0  0  0  0  0  0
   12.3321   21.8274  158.6293 C   0  0  0  0  0  0  0  0  0  0  0  0
   12.8806   21.3989  159.8001 C   0  0  0  0  0  0  0  0  0  0  0  0
   12.4186   20.2394  160.4046 C   0  0  0  0  0  0  0  0  0  0  0  0
   12.8576   24.2265  158.5945 C   0  0  0  0  0  0  0  0  0  0  0  0
   12.0645   16.2474  162.6268 C   0  0  0  0  0  0  0  0  0  0  0  0
    9.8802   11.3441  161.4250 C   0  0  0  0  0  0  0  0  0  0  0  0
    9.2711   10.9146  162.7145 C   0  0  0  0  0  0  0  0  0  0  0  0
   10.1687   10.0992  163.5675 C   0  0  0  0  0  0  0  0  0  0  0  0
   10.7377    8.9589  163.0165 C   0  0  0  0  0  0  0  0  0  0  0  0
   11.5923    8.1453  163.7347 C   0  0  0  0  0  0  0  0  0  0  0  0
   11.9088    8.4496  165.0418 C   0  0  0  0  0  0  0  0  0  0  0  0
   11.3587    9.5693  165.6048 C   0  0  0  0  0  0  0  0  0  0  0  0
   11.0062   13.1086  160.0830 N   0  0  2  0  0  4  0  0  0  0  0  0
   11.7479   16.6346  160.1980 N   0  0  0  0  0  0  0  0  0  0  0  0
   11.9633   15.1161  163.4286 O   0  0  0  0  0  0  0  0  0  0  0  0
    9.3684   17.8321  160.4677 O   0  0  0  0  0  0  0  0  0  0  0  0
   12.7336   22.9739  157.9591 O   0  0  0  0  0  0  0  0  0  0  0  0
   11.1031   18.2534  162.1386 O   0  0  0  0  0  0  0  0  0  0  0  0
   10.8435   18.0335  160.6539 S   0  0  2  0  0  6  0  0  0  0  0  0
   13.0046    7.4034  165.9555 Cl  0  0  0  0  0  0  0  0  0  0  0  0
 27  1  1  1
 22  2  2  0
  2 26  1  0
  4  3  1  0
  3 27  1  0
  4  5  2  0
  9  4  1  0
  5  6  1  0
  7  6  2  0
  8  7  1  0
  9  8  2  0
 28  9  1  0
 10 19  1  0
 28 10  1  0
 11 13  2  0
 11 17  1  0
 33 11  1  0
 12 20  1  0
 27 12  1  0
 13 14  1  0
 14 15  2  0
 16 15  1  0
 15 31  1  0
 17 16  2  0
 31 18  1  0
 19 29  1  0
 20 21  1  0
 21 22  1  0
 22 23  1  0
 23 24  2  0
 24 25  1  0
 26 25  2  0
 25 34  1  0
 33 28  1  6
 33 30  2  0
 33 32  2  0
M  CHG  1  27   1
M  END
$$$$
