
     RDKit          3D

 34 36  0  0  0  0  0  0  0  0999 V2000
   12.8641   13.1024  157.2497 C   0  0  0  0  0  0  0  0  0  0  0  0
   11.8749   19.6068  157.8693 C   0  0  0  0  0  0  0  0  0  0  0  0
   10.7496   13.0540  158.1736 C   0  0  0  0  0  0  0  0  0  0  0  0
   10.8276   11.6432  158.5322 C   0  0  0  0  0  0  0  0  0  0  0  0
   10.8167   10.6675  157.5685 C   0  0  0  0  0  0  0  0  0  0  0  0
   10.8823    9.3305  157.9147 C   0  0  0  0  0  0  0  0  0  0  0  0
   10.9598    8.9642  159.2346 C   0  0  0  0  0  0  0  0  0  0  0  0
   10.9696    9.9627  160.1903 C   0  0  0  0  0  0  0  0  0  0  0  0
   10.9061   11.3030  159.8981 C   0  0  0  0  0  0  0  0  0  0  0  0
   11.8992   13.3947  160.8042 C   0  0  0  0  0  0  0  0  0  0  0  0
   10.3570   11.3466  163.5318 C   0  0  0  0  0  0  0  0  0  0  0  0
   11.8036   15.1709  157.8231 C   0  0  0  0  0  0  0  0  0  0  0  0
    9.8729   10.0673  163.7369 C   0  0  0  0  0  0  0  0  0  0  0  0
   10.3151    9.2963  164.7909 C   0  0  0  0  0  0  0  0  0  0  0  0
   11.2600    9.7827  165.6775 C   0  0  0  0  0  0  0  0  0  0  0  0
   11.7460   11.0410  165.4885 C   0  0  0  0  0  0  0  0  0  0  0  0
   11.2968   11.8110  164.4262 C   0  0  0  0  0  0  0  0  0  0  0  0
   11.9761    7.5881  166.5163 C   0  0  0  0  0  0  0  0  0  0  0  0
   11.3841   14.7642  161.0717 C   0  0  0  0  0  0  0  0  0  0  0  0
   12.9712   16.0654  157.9410 C   0  0  0  0  0  0  0  0  0  0  0  0
   12.9132   17.3825  157.2481 C   0  0  0  0  0  0  0  0  0  0  0  0
   12.6793   18.5338  158.1524 C   0  0  0  0  0  0  0  0  0  0  0  0
   13.3261   18.5434  159.3808 C   0  0  0  0  0  0  0  0  0  0  0  0
   13.1739   19.5792  160.2820 C   0  0  0  0  0  0  0  0  0  0  0  0
   12.3605   20.6509  159.9798 C   0  0  0  0  0  0  0  0  0  0  0  0
   11.7131   20.6616  158.7739 C   0  0  0  0  0  0  0  0  0  0  0  0
   11.9943   13.7938  158.2018 N   0  0  2  0  0  4  0  0  0  0  0  0
   10.9308   12.3340  160.8771 N   0  0  0  0  0  0  0  0  0  0  0  0
   11.8733   15.3030  162.2563 O   0  0  0  0  0  0  0  0  0  0  0  0
    9.4946   13.7377  162.6480 O   0  0  0  0  0  0  0  0  0  0  0  0
   11.6544    8.9467  166.7121 O   0  0  0  0  0  0  0  0  0  0  0  0
    8.5375   11.6988  161.6965 O   0  0  0  0  0  0  0  0  0  0  0  0
    9.8220   12.3432  162.2012 S   0  0  2  0  0  6  0  0  0  0  0  0
   12.1705   21.9744  161.1385 Cl  0  0  0  0  0  0  0  0  0  0  0  0
 27  1  1  6
 22  2  2  0
  2 26  1  0
  4  3  1  0
  3 27  1  0
  4  5  2  0
  9  4  1  0
  5  6  1  0
  7  6  2  0
  8  7  1  0
  9  8  2  0
 28  9  1  0
 10 19  1  0
 28 10  1  0
 11 13  2  0
 11 17  1  0
 33 11  1  0
 12 20  1  0
 27 12  1  0
 13 14  1  0
 14 15  2  0
 16 15  1  0
 15 31  1  0
 17 16  2  0
 31 18  1  0
 19 29  1  0
 20 21  1  0
 21 22  1  0
 22 23  1  0
 23 24  2  0
 24 25  1  0
 26 25  2  0
 25 34  1  0
 33 28  1  6
 33 30  2  0
 33 32  2  0
M  CHG  1  27   1
M  END
$$$$
