
     RDKit          3D

 34 36  0  0  0  0  0  0  0  0999 V2000
   13.1691   16.1958  157.5233 C   0  0  0  0  0  0  0  0  0  0  0  0
   15.3444   20.2394  161.7421 C   0  0  0  0  0  0  0  0  0  0  0  0
   11.5662   15.1942  158.8477 C   0  0  0  0  0  0  0  0  0  0  0  0
   11.6600   13.8413  158.3130 C   0  0  0  0  0  0  0  0  0  0  0  0
   12.1836   13.6088  157.0669 C   0  0  0  0  0  0  0  0  0  0  0  0
   12.2624   12.3243  156.5611 C   0  0  0  0  0  0  0  0  0  0  0  0
   11.8147   11.2626  157.3058 C   0  0  0  0  0  0  0  0  0  0  0  0
   11.2906   11.5183  158.5590 C   0  0  0  0  0  0  0  0  0  0  0  0
   11.1903   12.7741  159.1054 C   0  0  0  0  0  0  0  0  0  0  0  0
   10.2143   14.3591  160.7540 C   0  0  0  0  0  0  0  0  0  0  0  0
    8.9592   11.1538  161.7716 C   0  0  0  0  0  0  0  0  0  0  0  0
   12.6356   17.1803  159.6395 C   0  0  0  0  0  0  0  0  0  0  0  0
    8.1264   11.5063  162.8181 C   0  0  0  0  0  0  0  0  0  0  0  0
    6.8550   10.9841  162.9268 C   0  0  0  0  0  0  0  0  0  0  0  0
    6.3740   10.0884  161.9879 C   0  0  0  0  0  0  0  0  0  0  0  0
    7.1826    9.7315  160.9515 C   0  0  0  0  0  0  0  0  0  0  0  0
    8.4603   10.2607  160.8484 C   0  0  0  0  0  0  0  0  0  0  0  0
    4.4296    8.8050  161.2100 C   0  0  0  0  0  0  0  0  0  0  0  0
   11.0530   15.0892  161.7417 C   0  0  0  0  0  0  0  0  0  0  0  0
   13.3413   18.3642  159.1126 C   0  0  0  0  0  0  0  0  0  0  0  0
   14.5878   18.7973  159.8032 C   0  0  0  0  0  0  0  0  0  0  0  0
   14.3631   19.7367  160.9279 C   0  0  0  0  0  0  0  0  0  0  0  0
   13.0615   20.1397  161.1942 C   0  0  0  0  0  0  0  0  0  0  0  0
   12.7584   21.0051  162.2274 C   0  0  0  0  0  0  0  0  0  0  0  0
   13.7589   21.5006  163.0366 C   0  0  0  0  0  0  0  0  0  0  0  0
   15.0495   21.1162  162.7916 C   0  0  0  0  0  0  0  0  0  0  0  0
   12.8028   15.9446  158.9175 N   0  0  2  0  0  4  0  0  0  0  0  0
   10.6655   13.0402  160.3999 N   0  0  0  0  0  0  0  0  0  0  0  0
   10.3393   16.0482  162.4517 O   0  0  0  0  0  0  0  0  0  0  0  0
   11.5863   10.7237  161.3770 O   0  0  0  0  0  0  0  0  0  0  0  0
    5.0848    9.6077  162.1661 O   0  0  0  0  0  0  0  0  0  0  0  0
   10.8852   12.4721  162.9359 O   0  0  0  0  0  0  0  0  0  0  0  0
   10.5709   11.8049  161.6032 S   0  0  2  0  0  6  0  0  0  0  0  0
   13.3635   22.6081  164.3585 Cl  0  0  0  0  0  0  0  0  0  0  0  0
 27  1  1  6
 22  2  2  0
  2 26  1  0
  4  3  1  0
  3 27  1  0
  4  5  2  0
  9  4  1  0
  5  6  1  0
  7  6  2  0
  8  7  1  0
  9  8  2  0
 28  9  1  0
 10 19  1  0
 28 10  1  0
 11 13  2  0
 11 17  1  0
 33 11  1  0
 12 20  1  0
 27 12  1  0
 13 14  1  0
 14 15  2  0
 16 15  1  0
 15 31  1  0
 17 16  2  0
 31 18  1  0
 19 29  1  0
 20 21  1  0
 21 22  1  0
 22 23  1  0
 23 24  2  0
 24 25  1  0
 26 25  2  0
 25 34  1  0
 33 28  1  6
 33 30  2  0
 33 32  2  0
M  CHG  1  27   1
M  END
$$$$
