
     RDKit          3D

 34 36  0  0  0  0  0  0  0  0999 V2000
    9.5838   12.0669  158.5004 C   0  0  0  0  0  0  0  0  0  0  0  0
   12.5510   10.8470  164.0455 C   0  0  0  0  0  0  0  0  0  0  0  0
   10.2840   14.0274  159.4968 C   0  0  0  0  0  0  0  0  0  0  0  0
    9.1727   14.8440  159.9695 C   0  0  0  0  0  0  0  0  0  0  0  0
    7.8760   14.5174  159.6646 C   0  0  0  0  0  0  0  0  0  0  0  0
    6.8263   15.3002  160.1084 C   0  0  0  0  0  0  0  0  0  0  0  0
    7.0730   16.4188  160.8634 C   0  0  0  0  0  0  0  0  0  0  0  0
    8.3867   16.7304  161.1599 C   0  0  0  0  0  0  0  0  0  0  0  0
    9.4629   15.9864  160.7431 C   0  0  0  0  0  0  0  0  0  0  0  0
   11.8669   15.3527  160.7863 C   0  0  0  0  0  0  0  0  0  0  0  0
   11.2668   19.1218  160.6632 C   0  0  0  0  0  0  0  0  0  0  0  0
   11.4633   12.0054  159.9822 C   0  0  0  0  0  0  0  0  0  0  0  0
   12.3917   19.4449  159.9261 C   0  0  0  0  0  0  0  0  0  0  0  0
   12.3827   20.4935  159.0309 C   0  0  0  0  0  0  0  0  0  0  0  0
   11.2429   21.2558  158.8437 C   0  0  0  0  0  0  0  0  0  0  0  0
   10.1271   20.9497  159.5626 C   0  0  0  0  0  0  0  0  0  0  0  0
   10.1433   19.8937  160.4612 C   0  0  0  0  0  0  0  0  0  0  0  0
   10.6570   23.5270  158.1149 C   0  0  0  0  0  0  0  0  0  0  0  0
   13.0710   15.9014  160.1070 C   0  0  0  0  0  0  0  0  0  0  0  0
   11.7637   11.6347  161.3785 C   0  0  0  0  0  0  0  0  0  0  0  0
   11.7638   10.1877  161.7310 C   0  0  0  0  0  0  0  0  0  0  0  0
   12.1492    9.9052  163.1345 C   0  0  0  0  0  0  0  0  0  0  0  0
   12.1135    8.5877  163.5707 C   0  0  0  0  0  0  0  0  0  0  0  0
   12.4642    8.2315  164.8584 C   0  0  0  0  0  0  0  0  0  0  0  0
   12.8665    9.1928  165.7615 C   0  0  0  0  0  0  0  0  0  0  0  0
   12.9087   10.4983  165.3523 C   0  0  0  0  0  0  0  0  0  0  0  0
   10.1767   12.6016  159.7266 N   0  0  2  0  0  4  0  0  0  0  0  0
   10.8148   16.2949  161.0579 N   0  0  0  0  0  0  0  0  0  0  0  0
   13.6916   14.9748  159.2768 O   0  0  0  0  0  0  0  0  0  0  0  0
   10.3882   18.0972  162.9914 O   0  0  0  0  0  0  0  0  0  0  0  0
   11.3127   22.2934  157.9253 O   0  0  0  0  0  0  0  0  0  0  0  0
   12.6830   17.6438  162.2796 O   0  0  0  0  0  0  0  0  0  0  0  0
   11.2459   17.7946  161.7981 S   0  0  2  0  0  6  0  0  0  0  0  0
   13.3148    8.7295  167.4091 Cl  0  0  0  0  0  0  0  0  0  0  0  0
 27  1  1  6
 22  2  2  0
  2 26  1  0
  4  3  1  0
  3 27  1  0
  4  5  2  0
  9  4  1  0
  5  6  1  0
  7  6  2  0
  8  7  1  0
  9  8  2  0
 28  9  1  0
 10 19  1  0
 28 10  1  0
 11 13  2  0
 11 17  1  0
 33 11  1  0
 12 20  1  0
 27 12  1  0
 13 14  1  0
 14 15  2  0
 16 15  1  0
 15 31  1  0
 17 16  2  0
 31 18  1  0
 19 29  1  0
 20 21  1  0
 21 22  1  0
 22 23  1  0
 23 24  2  0
 24 25  1  0
 26 25  2  0
 25 34  1  0
 33 28  1  6
 33 30  2  0
 33 32  2  0
M  CHG  1  27   1
M  END
$$$$
