
     RDKit          3D

 34 36  0  0  0  0  0  0  0  0999 V2000
   11.7500   13.1782  160.9706 C   0  0  0  0  0  0  0  0  0  0  0  0
   13.1447   18.4726  159.8734 C   0  0  0  0  0  0  0  0  0  0  0  0
   11.1652   11.7568  159.2488 C   0  0  0  0  0  0  0  0  0  0  0  0
    9.9700   11.0005  158.8960 C   0  0  0  0  0  0  0  0  0  0  0  0
    9.2911   11.2544  157.7317 C   0  0  0  0  0  0  0  0  0  0  0  0
    8.1530   10.5399  157.4062 C   0  0  0  0  0  0  0  0  0  0  0  0
    7.6886    9.5631  158.2502 C   0  0  0  0  0  0  0  0  0  0  0  0
    8.3872    9.3226  159.4185 C   0  0  0  0  0  0  0  0  0  0  0  0
    9.5210   10.0042  159.7867 C   0  0  0  0  0  0  0  0  0  0  0  0
   11.6383    9.3746  160.9283 C   0  0  0  0  0  0  0  0  0  0  0  0
   10.1649   11.1423  163.5113 C   0  0  0  0  0  0  0  0  0  0  0  0
   11.3702   14.0943  158.7915 C   0  0  0  0  0  0  0  0  0  0  0  0
    9.6032   12.4056  163.5500 C   0  0  0  0  0  0  0  0  0  0  0  0
   10.1407   13.4031  164.3355 C   0  0  0  0  0  0  0  0  0  0  0  0
   11.2626   13.1675  165.1110 C   0  0  0  0  0  0  0  0  0  0  0  0
   11.8272   11.9282  165.0832 C   0  0  0  0  0  0  0  0  0  0  0  0
   11.2812   10.9297  164.2908 C   0  0  0  0  0  0  0  0  0  0  0  0
   11.5930   15.5709  165.4948 C   0  0  0  0  0  0  0  0  0  0  0  0
   11.9129    7.9418  160.6385 C   0  0  0  0  0  0  0  0  0  0  0  0
   11.1490   15.5070  159.1556 C   0  0  0  0  0  0  0  0  0  0  0  0
   12.1378   16.1569  160.0601 C   0  0  0  0  0  0  0  0  0  0  0  0
   12.9672   17.1967  159.4053 C   0  0  0  0  0  0  0  0  0  0  0  0
   13.6127   16.8692  158.2206 C   0  0  0  0  0  0  0  0  0  0  0  0
   14.3981   17.7775  157.5378 C   0  0  0  0  0  0  0  0  0  0  0  0
   14.5650   19.0571  158.0237 C   0  0  0  0  0  0  0  0  0  0  0  0
   13.9377   19.4011  159.1905 C   0  0  0  0  0  0  0  0  0  0  0  0
   10.9520   13.0999  159.7466 N   0  0  2  0  0  4  0  0  0  0  0  0
   10.2510    9.7503  160.9803 N   0  0  0  0  0  0  0  0  0  0  0  0
   12.5944    7.3037  161.6688 O   0  0  0  0  0  0  0  0  0  0  0  0
    8.0078    9.9524  162.4281 O   0  0  0  0  0  0  0  0  0  0  0  0
   11.7436   14.2214  165.8743 O   0  0  0  0  0  0  0  0  0  0  0  0
    9.8389    8.5661  163.2672 O   0  0  0  0  0  0  0  0  0  0  0  0
    9.5016    9.8570  162.5326 S   0  0  2  0  0  6  0  0  0  0  0  0
   15.5721   20.2155  157.1438 Cl  0  0  0  0  0  0  0  0  0  0  0  0
 27  1  1  1
 22  2  2  0
  2 26  1  0
  4  3  1  0
  3 27  1  0
  4  5  2  0
  9  4  1  0
  5  6  1  0
  7  6  2  0
  8  7  1  0
  9  8  2  0
 28  9  1  0
 10 19  1  0
 28 10  1  0
 11 13  2  0
 11 17  1  0
 33 11  1  0
 12 20  1  0
 27 12  1  0
 13 14  1  0
 14 15  2  0
 16 15  1  0
 15 31  1  0
 17 16  2  0
 31 18  1  0
 19 29  1  0
 20 21  1  0
 21 22  1  0
 22 23  1  0
 23 24  2  0
 24 25  1  0
 26 25  2  0
 25 34  1  0
 33 28  1  6
 33 30  2  0
 33 32  2  0
M  CHG  1  27   1
M  END
$$$$
