
     RDKit          3D

 34 36  0  0  0  0  0  0  0  0999 V2000
    9.7996   11.6296  158.2425 C   0  0  0  0  0  0  0  0  0  0  0  0
   11.1541    8.3315  163.5566 C   0  0  0  0  0  0  0  0  0  0  0  0
   10.6901   13.4792  159.2974 C   0  0  0  0  0  0  0  0  0  0  0  0
    9.5748   14.3160  159.7227 C   0  0  0  0  0  0  0  0  0  0  0  0
    8.3978   14.3361  159.0188 C   0  0  0  0  0  0  0  0  0  0  0  0
    7.3462   15.1382  159.4218 C   0  0  0  0  0  0  0  0  0  0  0  0
    7.4703   15.9270  160.5374 C   0  0  0  0  0  0  0  0  0  0  0  0
    8.6644   15.8922  161.2328 C   0  0  0  0  0  0  0  0  0  0  0  0
    9.7372   15.1139  160.8736 C   0  0  0  0  0  0  0  0  0  0  0  0
   11.3328   13.8876  162.3341 C   0  0  0  0  0  0  0  0  0  0  0  0
   11.5159   17.7187  160.5959 C   0  0  0  0  0  0  0  0  0  0  0  0
   11.7785   11.3675  159.5644 C   0  0  0  0  0  0  0  0  0  0  0  0
   11.9645   17.8527  159.2944 C   0  0  0  0  0  0  0  0  0  0  0  0
   11.5327   18.8879  158.4926 C   0  0  0  0  0  0  0  0  0  0  0  0
   10.6342   19.8264  158.9694 C   0  0  0  0  0  0  0  0  0  0  0  0
   10.1835   19.7077  160.2493 C   0  0  0  0  0  0  0  0  0  0  0  0
   10.6220   18.6640  161.0502 C   0  0  0  0  0  0  0  0  0  0  0  0
   11.0074   21.2097  156.9744 C   0  0  0  0  0  0  0  0  0  0  0  0
   12.3437   13.0069  161.6901 C   0  0  0  0  0  0  0  0  0  0  0  0
   12.1464   10.8634  160.9014 C   0  0  0  0  0  0  0  0  0  0  0  0
   11.3989    9.6906  161.4343 C   0  0  0  0  0  0  0  0  0  0  0  0
   11.7053    9.3673  162.8484 C   0  0  0  0  0  0  0  0  0  0  0  0
   12.6126   10.1735  163.5224 C   0  0  0  0  0  0  0  0  0  0  0  0
   12.9506    9.9520  164.8433 C   0  0  0  0  0  0  0  0  0  0  0  0
   12.3855    8.9050  165.5403 C   0  0  0  0  0  0  0  0  0  0  0  0
   11.4886    8.0974  164.8947 C   0  0  0  0  0  0  0  0  0  0  0  0
   10.5146   12.0496  159.4480 N   0  0  2  0  0  4  0  0  0  0  0  0
   10.9621   15.0639  161.5941 N   0  0  0  0  0  0  0  0  0  0  0  0
   12.9052   12.0931  162.5747 O   0  0  0  0  0  0  0  0  0  0  0  0
   12.2964   16.8856  163.0329 O   0  0  0  0  0  0  0  0  0  0  0  0
   10.2472   20.8377  158.1021 O   0  0  0  0  0  0  0  0  0  0  0  0
   13.3606   15.9313  161.0491 O   0  0  0  0  0  0  0  0  0  0  0  0
   12.0387   16.4137  161.6321 S   0  0  2  0  0  6  0  0  0  0  0  0
   12.8226    8.6273  167.2321 Cl  0  0  0  0  0  0  0  0  0  0  0  0
 27  1  1  6
 22  2  2  0
  2 26  1  0
  4  3  1  0
  3 27  1  0
  4  5  2  0
  9  4  1  0
  5  6  1  0
  7  6  2  0
  8  7  1  0
  9  8  2  0
 28  9  1  0
 10 19  1  0
 28 10  1  0
 11 13  2  0
 11 17  1  0
 33 11  1  0
 12 20  1  0
 27 12  1  0
 13 14  1  0
 14 15  2  0
 16 15  1  0
 15 31  1  0
 17 16  2  0
 31 18  1  0
 19 29  1  0
 20 21  1  0
 21 22  1  0
 22 23  1  0
 23 24  2  0
 24 25  1  0
 26 25  2  0
 25 34  1  0
 33 28  1  1
 33 30  2  0
 33 32  2  0
M  CHG  1  27   1
M  END
$$$$
