
     RDKit          3D

 34 36  0  0  0  0  0  0  0  0999 V2000
   10.4808    9.1429  158.9577 C   0  0  0  0  0  0  0  0  0  0  0  0
   14.0882   13.3470  156.5468 C   0  0  0  0  0  0  0  0  0  0  0  0
   10.6430   10.4317  160.8654 C   0  0  0  0  0  0  0  0  0  0  0  0
   11.0525   10.1892  162.2433 C   0  0  0  0  0  0  0  0  0  0  0  0
   11.1356    8.9142  162.7419 C   0  0  0  0  0  0  0  0  0  0  0  0
   11.5164    8.6904  164.0521 C   0  0  0  0  0  0  0  0  0  0  0  0
   11.8171    9.7486  164.8719 C   0  0  0  0  0  0  0  0  0  0  0  0
   11.7272   11.0255  164.3502 C   0  0  0  0  0  0  0  0  0  0  0  0
   11.3540   11.3000  163.0575 C   0  0  0  0  0  0  0  0  0  0  0  0
   12.3984   13.1935  161.8301 C   0  0  0  0  0  0  0  0  0  0  0  0
   10.1856   15.2437  162.9963 C   0  0  0  0  0  0  0  0  0  0  0  0
   12.2306   10.7697  159.1105 C   0  0  0  0  0  0  0  0  0  0  0  0
   10.0021   16.2341  162.0484 C   0  0  0  0  0  0  0  0  0  0  0  0
   10.2741   17.5554  162.3335 C   0  0  0  0  0  0  0  0  0  0  0  0
   10.7405   17.9298  163.5815 C   0  0  0  0  0  0  0  0  0  0  0  0
   10.9264   16.9655  164.5255 C   0  0  0  0  0  0  0  0  0  0  0  0
   10.6508   15.6385  164.2319 C   0  0  0  0  0  0  0  0  0  0  0  0
   11.2794   19.8129  165.0635 C   0  0  0  0  0  0  0  0  0  0  0  0
   12.3877   13.0809  160.3471 C   0  0  0  0  0  0  0  0  0  0  0  0
   11.4936   11.7525  158.2931 C   0  0  0  0  0  0  0  0  0  0  0  0
   12.1045   13.0971  158.1004 C   0  0  0  0  0  0  0  0  0  0  0  0
   12.7378   13.2913  156.7740 C   0  0  0  0  0  0  0  0  0  0  0  0
   11.9105   13.4387  155.6689 C   0  0  0  0  0  0  0  0  0  0  0  0
   12.4132   13.6329  154.3970 C   0  0  0  0  0  0  0  0  0  0  0  0
   13.7750   13.6865  154.1873 C   0  0  0  0  0  0  0  0  0  0  0  0
   14.6089   13.5433  155.2632 C   0  0  0  0  0  0  0  0  0  0  0  0
   11.4459    9.8038  159.8367 N   0  0  2  0  0  4  0  0  0  0  0  0
   11.2744   12.6109  162.5124 N   0  0  0  0  0  0  0  0  0  0  0  0
   12.1450   14.2954  159.7153 O   0  0  0  0  0  0  0  0  0  0  0  0
    8.9327   13.4036  161.4842 O   0  0  0  0  0  0  0  0  0  0  0  0
   10.9907   19.2782  163.7913 O   0  0  0  0  0  0  0  0  0  0  0  0
    9.1072   13.0462  163.8967 O   0  0  0  0  0  0  0  0  0  0  0  0
    9.8420   13.5634  162.6669 S   0  0  2  0  0  6  0  0  0  0  0  0
   14.4120   13.9360  152.5557 Cl  0  0  0  0  0  0  0  0  0  0  0  0
 27  1  1  6
 22  2  2  0
  2 26  1  0
  4  3  1  0
  3 27  1  0
  4  5  2  0
  9  4  1  0
  5  6  1  0
  7  6  2  0
  8  7  1  0
  9  8  2  0
 28  9  1  0
 10 19  1  0
 28 10  1  0
 11 13  2  0
 11 17  1  0
 33 11  1  0
 12 20  1  0
 27 12  1  0
 13 14  1  0
 14 15  2  0
 16 15  1  0
 15 31  1  0
 17 16  2  0
 31 18  1  0
 19 29  1  0
 20 21  1  0
 21 22  1  0
 22 23  1  0
 23 24  2  0
 24 25  1  0
 26 25  2  0
 25 34  1  0
 33 28  1  6
 33 30  2  0
 33 32  2  0
M  CHG  1  27   1
M  END
$$$$
