
     RDKit          3D

 34 36  0  0  0  0  0  0  0  0999 V2000
   12.4865   17.7312  158.4175 C   0  0  0  0  0  0  0  0  0  0  0  0
   10.6781   22.9096  158.9097 C   0  0  0  0  0  0  0  0  0  0  0  0
   10.8396   16.8379  159.7653 C   0  0  0  0  0  0  0  0  0  0  0  0
    9.9854   16.8118  160.9463 C   0  0  0  0  0  0  0  0  0  0  0  0
    9.1844   17.8792  161.2629 C   0  0  0  0  0  0  0  0  0  0  0  0
    8.3826   17.8524  162.3889 C   0  0  0  0  0  0  0  0  0  0  0  0
    8.3800   16.7505  163.2061 C   0  0  0  0  0  0  0  0  0  0  0  0
    9.1941   15.6853  162.8694 C   0  0  0  0  0  0  0  0  0  0  0  0
   10.0079   15.6633  161.7636 C   0  0  0  0  0  0  0  0  0  0  0  0
   10.7292   13.9551  160.1069 C   0  0  0  0  0  0  0  0  0  0  0  0
   11.5549   12.2900  163.0371 C   0  0  0  0  0  0  0  0  0  0  0  0
   11.2958   19.1804  159.9056 C   0  0  0  0  0  0  0  0  0  0  0  0
   12.4687   11.2518  163.0466 C   0  0  0  0  0  0  0  0  0  0  0  0
   12.1112    9.9888  163.4688 C   0  0  0  0  0  0  0  0  0  0  0  0
   10.8222    9.7230  163.8968 C   0  0  0  0  0  0  0  0  0  0  0  0
    9.9110   10.7354  163.8930 C   0  0  0  0  0  0  0  0  0  0  0  0
   10.2775   12.0032  163.4671 C   0  0  0  0  0  0  0  0  0  0  0  0
   11.0772    7.2907  163.6688 C   0  0  0  0  0  0  0  0  0  0  0  0
   11.8575   13.0713  159.7092 C   0  0  0  0  0  0  0  0  0  0  0  0
   11.7974   20.2459  159.0165 C   0  0  0  0  0  0  0  0  0  0  0  0
   12.5538   21.3705  159.6339 C   0  0  0  0  0  0  0  0  0  0  0  0
   11.8601   22.6789  159.5640 C   0  0  0  0  0  0  0  0  0  0  0  0
   12.4467   23.7656  160.1984 C   0  0  0  0  0  0  0  0  0  0  0  0
   11.8756   25.0232  160.1774 C   0  0  0  0  0  0  0  0  0  0  0  0
   10.6860   25.2366  159.5137 C   0  0  0  0  0  0  0  0  0  0  0  0
   10.0904   24.1788  158.8815 C   0  0  0  0  0  0  0  0  0  0  0  0
   11.8594   17.8656  159.7327 N   0  0  2  0  0  4  0  0  0  0  0  0
   10.8359   14.5641  161.4054 N   0  0  0  0  0  0  0  0  0  0  0  0
   12.5443   13.5412  158.5954 O   0  0  0  0  0  0  0  0  0  0  0  0
   13.3806   13.9601  161.9790 O   0  0  0  0  0  0  0  0  0  0  0  0
   10.5401    8.4278  164.3063 O   0  0  0  0  0  0  0  0  0  0  0  0
   11.9219   14.7666  163.7680 O   0  0  0  0  0  0  0  0  0  0  0  0
   11.9807   13.9014  162.5159 S   0  0  2  0  0  6  0  0  0  0  0  0
    9.9605   26.8501  159.4905 Cl  0  0  0  0  0  0  0  0  0  0  0  0
 27  1  1  6
 22  2  2  0
  2 26  1  0
  4  3  1  0
  3 27  1  0
  4  5  2  0
  9  4  1  0
  5  6  1  0
  7  6  2  0
  8  7  1  0
  9  8  2  0
 28  9  1  0
 10 19  1  0
 28 10  1  0
 11 13  2  0
 11 17  1  0
 33 11  1  0
 12 20  1  0
 27 12  1  0
 13 14  1  0
 14 15  2  0
 16 15  1  0
 15 31  1  0
 17 16  2  0
 31 18  1  0
 19 29  1  0
 20 21  1  0
 21 22  1  0
 22 23  1  0
 23 24  2  0
 24 25  1  0
 26 25  2  0
 25 34  1  0
 33 28  1  6
 33 30  2  0
 33 32  2  0
M  CHG  1  27   1
M  END
$$$$
