
     RDKit          3D

 34 36  0  0  0  0  0  0  0  0999 V2000
    9.4971    9.1415  159.5240 C   0  0  0  0  0  0  0  0  0  0  0  0
   11.2426   11.3910  164.2651 C   0  0  0  0  0  0  0  0  0  0  0  0
   10.3296   10.5155  157.8669 C   0  0  0  0  0  0  0  0  0  0  0  0
    9.2949   11.3940  157.3352 C   0  0  0  0  0  0  0  0  0  0  0  0
    7.9858   11.2583  157.7212 C   0  0  0  0  0  0  0  0  0  0  0  0
    7.0071   12.0888  157.2072 C   0  0  0  0  0  0  0  0  0  0  0  0
    7.3380   13.0634  156.3001 C   0  0  0  0  0  0  0  0  0  0  0  0
    8.6627   13.1837  155.9242 C   0  0  0  0  0  0  0  0  0  0  0  0
    9.6706   12.3844  156.4049 C   0  0  0  0  0  0  0  0  0  0  0  0
   11.7757   11.3825  155.5405 C   0  0  0  0  0  0  0  0  0  0  0  0
   12.1189   14.4924  157.8396 C   0  0  0  0  0  0  0  0  0  0  0  0
   11.6660   10.1150  159.8083 C   0  0  0  0  0  0  0  0  0  0  0  0
   13.2871   14.2034  158.5213 C   0  0  0  0  0  0  0  0  0  0  0  0
   13.4644   14.5921  159.8322 C   0  0  0  0  0  0  0  0  0  0  0  0
   12.4742   15.2854  160.5061 C   0  0  0  0  0  0  0  0  0  0  0  0
   11.3179   15.5772  159.8479 C   0  0  0  0  0  0  0  0  0  0  0  0
   11.1463   15.1832  158.5294 C   0  0  0  0  0  0  0  0  0  0  0  0
   12.0701   15.0425  162.9166 C   0  0  0  0  0  0  0  0  0  0  0  0
   12.9705   10.9917  156.3354 C   0  0  0  0  0  0  0  0  0  0  0  0
   11.7959    9.8072  161.2455 C   0  0  0  0  0  0  0  0  0  0  0  0
   12.4561   10.8177  162.1179 C   0  0  0  0  0  0  0  0  0  0  0  0
   12.1621   10.6570  163.5622 C   0  0  0  0  0  0  0  0  0  0  0  0
   12.8725    9.6984  164.2721 C   0  0  0  0  0  0  0  0  0  0  0  0
   12.6707    9.4863  165.6220 C   0  0  0  0  0  0  0  0  0  0  0  0
   11.7414   10.2347  166.3131 C   0  0  0  0  0  0  0  0  0  0  0  0
   11.0297   11.1852  165.6324 C   0  0  0  0  0  0  0  0  0  0  0  0
   10.3329   10.3220  159.3021 N   0  0  2  0  0  4  0  0  0  0  0  0
   11.0367   12.5141  156.0323 N   0  0  0  0  0  0  0  0  0  0  0  0
   14.1547   11.0889  155.6133 O   0  0  0  0  0  0  0  0  0  0  0  0
   13.1516   14.0288  155.3981 O   0  0  0  0  0  0  0  0  0  0  0  0
   12.7276   15.6417  161.8228 O   0  0  0  0  0  0  0  0  0  0  0  0
   10.9525   15.0817  155.5824 O   0  0  0  0  0  0  0  0  0  0  0  0
   11.8691   14.0204  156.1768 S   0  0  2  0  0  6  0  0  0  0  0  0
   11.4885    9.9580  168.0422 Cl  0  0  0  0  0  0  0  0  0  0  0  0
 27  1  1  6
 22  2  2  0
  2 26  1  0
  4  3  1  0
  3 27  1  0
  4  5  2  0
  9  4  1  0
  5  6  1  0
  7  6  2  0
  8  7  1  0
  9  8  2  0
 28  9  1  0
 10 19  1  0
 28 10  1  0
 11 13  2  0
 11 17  1  0
 33 11  1  0
 12 20  1  0
 27 12  1  0
 13 14  1  0
 14 15  2  0
 16 15  1  0
 15 31  1  0
 17 16  2  0
 31 18  1  0
 19 29  1  0
 20 21  1  0
 21 22  1  0
 22 23  1  0
 23 24  2  0
 24 25  1  0
 26 25  2  0
 25 34  1  0
 33 28  1  1
 33 30  2  0
 33 32  2  0
M  CHG  1  27   1
M  END
$$$$
