
     RDKit          3D

 34 36  0  0  0  0  0  0  0  0999 V2000
   13.4441   18.9767  160.2189 C   0  0  0  0  0  0  0  0  0  0  0  0
   11.7994   23.7952  157.8863 C   0  0  0  0  0  0  0  0  0  0  0  0
   12.0087   17.4659  161.2109 C   0  0  0  0  0  0  0  0  0  0  0  0
   12.0726   17.2077  162.6442 C   0  0  0  0  0  0  0  0  0  0  0  0
   12.6803   18.0947  163.4957 C   0  0  0  0  0  0  0  0  0  0  0  0
   12.7456   17.8407  164.8532 C   0  0  0  0  0  0  0  0  0  0  0  0
   12.1993   16.6912  165.3654 C   0  0  0  0  0  0  0  0  0  0  0  0
   11.5914   15.8104  164.4907 C   0  0  0  0  0  0  0  0  0  0  0  0
   11.5010   16.0165  163.1361 C   0  0  0  0  0  0  0  0  0  0  0  0
    9.4472   15.1980  161.9981 C   0  0  0  0  0  0  0  0  0  0  0  0
   11.8782   12.4162  162.3345 C   0  0  0  0  0  0  0  0  0  0  0  0
   11.0899   19.1989  159.8444 C   0  0  0  0  0  0  0  0  0  0  0  0
   13.0190   12.0831  163.0419 C   0  0  0  0  0  0  0  0  0  0  0  0
   13.0921   10.9153  163.7713 C   0  0  0  0  0  0  0  0  0  0  0  0
   12.0214   10.0395  163.8164 C   0  0  0  0  0  0  0  0  0  0  0  0
   10.8910   10.3540  163.1246 C   0  0  0  0  0  0  0  0  0  0  0  0
   10.8244   11.5302  162.3930 C   0  0  0  0  0  0  0  0  0  0  0  0
   11.4698    7.6947  164.2963 C   0  0  0  0  0  0  0  0  0  0  0  0
    8.7174   16.2440  162.7633 C   0  0  0  0  0  0  0  0  0  0  0  0
   10.7889   20.6337  159.6776 C   0  0  0  0  0  0  0  0  0  0  0  0
   11.6862   21.4371  158.8014 C   0  0  0  0  0  0  0  0  0  0  0  0
   11.0897   22.7076  158.3240 C   0  0  0  0  0  0  0  0  0  0  0  0
    9.7060   22.8216  158.3235 C   0  0  0  0  0  0  0  0  0  0  0  0
    9.0648   23.9711  157.9044 C   0  0  0  0  0  0  0  0  0  0  0  0
    9.7955   25.0558  157.4675 C   0  0  0  0  0  0  0  0  0  0  0  0
   11.1611   24.9648  157.4596 C   0  0  0  0  0  0  0  0  0  0  0  0
   12.1083   18.8518  160.8028 N   0  0  2  0  0  4  0  0  0  0  0  0
   10.8638   15.1204  162.2345 N   0  0  0  0  0  0  0  0  0  0  0  0
    7.3609   15.9687  162.8948 O   0  0  0  0  0  0  0  0  0  0  0  0
   11.2144   13.6398  160.0313 O   0  0  0  0  0  0  0  0  0  0  0  0
   12.1718    8.8859  164.5722 O   0  0  0  0  0  0  0  0  0  0  0  0
   13.1790   14.4090  161.2671 O   0  0  0  0  0  0  0  0  0  0  0  0
   11.7534   13.8918  161.4087 S   0  0  2  0  0  6  0  0  0  0  0  0
    8.9677   26.5252  156.9326 Cl  0  0  0  0  0  0  0  0  0  0  0  0
 27  1  1  6
 22  2  2  0
  2 26  1  0
  4  3  1  0
  3 27  1  0
  4  5  2  0
  9  4  1  0
  5  6  1  0
  7  6  2  0
  8  7  1  0
  9  8  2  0
 28  9  1  0
 10 19  1  0
 28 10  1  0
 11 13  2  0
 11 17  1  0
 33 11  1  0
 12 20  1  0
 27 12  1  0
 13 14  1  0
 14 15  2  0
 16 15  1  0
 15 31  1  0
 17 16  2  0
 31 18  1  0
 19 29  1  0
 20 21  1  0
 21 22  1  0
 22 23  1  0
 23 24  2  0
 24 25  1  0
 26 25  2  0
 25 34  1  0
 33 28  1  1
 33 30  2  0
 33 32  2  0
M  CHG  1  27   1
M  END
$$$$
