
     RDKit          3D

 34 36  0  0  0  0  0  0  0  0999 V2000
   12.7427   15.2777  159.9902 C   0  0  0  0  0  0  0  0  0  0  0  0
   10.8125    9.2200  162.9193 C   0  0  0  0  0  0  0  0  0  0  0  0
   10.4681   15.4844  160.3226 C   0  0  0  0  0  0  0  0  0  0  0  0
   10.3874   16.5243  159.3042 C   0  0  0  0  0  0  0  0  0  0  0  0
   10.1756   16.2081  157.9866 C   0  0  0  0  0  0  0  0  0  0  0  0
   10.1085   17.1979  157.0235 C   0  0  0  0  0  0  0  0  0  0  0  0
   10.2540   18.5150  157.3788 C   0  0  0  0  0  0  0  0  0  0  0  0
   10.4666   18.8126  158.7118 C   0  0  0  0  0  0  0  0  0  0  0  0
   10.5415   17.8672  159.7049 C   0  0  0  0  0  0  0  0  0  0  0  0
    9.7414   17.8528  162.0591 C   0  0  0  0  0  0  0  0  0  0  0  0
   12.2341   20.6433  161.2066 C   0  0  0  0  0  0  0  0  0  0  0  0
   11.6069   13.6180  161.2893 C   0  0  0  0  0  0  0  0  0  0  0  0
   12.5991   21.0833  159.9471 C   0  0  0  0  0  0  0  0  0  0  0  0
   12.6223   22.4268  159.6383 C   0  0  0  0  0  0  0  0  0  0  0  0
   12.2796   23.3775  160.5840 C   0  0  0  0  0  0  0  0  0  0  0  0
   11.9180   22.9594  161.8289 C   0  0  0  0  0  0  0  0  0  0  0  0
   11.8969   21.6065  162.1326 C   0  0  0  0  0  0  0  0  0  0  0  0
   11.9172   25.7641  161.0372 C   0  0  0  0  0  0  0  0  0  0  0  0
    8.8703   18.9808  162.4848 C   0  0  0  0  0  0  0  0  0  0  0  0
   12.1081   12.2527  161.0400 C   0  0  0  0  0  0  0  0  0  0  0  0
   11.1781   11.1142  161.2793 C   0  0  0  0  0  0  0  0  0  0  0  0
   11.4132   10.3968  162.5553 C   0  0  0  0  0  0  0  0  0  0  0  0
   12.3016   10.9537  163.4654 C   0  0  0  0  0  0  0  0  0  0  0  0
   12.5743   10.3592  164.6821 C   0  0  0  0  0  0  0  0  0  0  0  0
   11.9600    9.1752  165.0315 C   0  0  0  0  0  0  0  0  0  0  0  0
   11.0806    8.6087  164.1488 C   0  0  0  0  0  0  0  0  0  0  0  0
   11.5149   14.4983  160.1524 N   0  0  2  0  0  4  0  0  0  0  0  0
   10.7454   18.1697  161.0793 N   0  0  0  0  0  0  0  0  0  0  0  0
    7.9571   18.6163  163.4678 O   0  0  0  0  0  0  0  0  0  0  0  0
   12.4219   18.7305  163.0902 O   0  0  0  0  0  0  0  0  0  0  0  0
   12.3273   24.7089  160.1969 O   0  0  0  0  0  0  0  0  0  0  0  0
   13.3410   18.3065  160.8644 O   0  0  0  0  0  0  0  0  0  0  0  0
   12.1875   18.9482  161.6243 S   0  0  2  0  0  6  0  0  0  0  0  0
   12.3135    8.4195  166.5917 Cl  0  0  0  0  0  0  0  0  0  0  0  0
 27  1  1  1
 22  2  2  0
  2 26  1  0
  4  3  1  0
  3 27  1  0
  4  5  2  0
  9  4  1  0
  5  6  1  0
  7  6  2  0
  8  7  1  0
  9  8  2  0
 28  9  1  0
 10 19  1  0
 28 10  1  0
 11 13  2  0
 11 17  1  0
 33 11  1  0
 12 20  1  0
 27 12  1  0
 13 14  1  0
 14 15  2  0
 16 15  1  0
 15 31  1  0
 17 16  2  0
 31 18  1  0
 19 29  1  0
 20 21  1  0
 21 22  1  0
 22 23  1  0
 23 24  2  0
 24 25  1  0
 26 25  2  0
 25 34  1  0
 33 28  1  6
 33 30  2  0
 33 32  2  0
M  CHG  1  27   1
M  END
$$$$
