
     RDKit          3D

 34 36  0  0  0  0  0  0  0  0999 V2000
   11.8349   16.1221  163.1787 C   0  0  0  0  0  0  0  0  0  0  0  0
   12.8820   20.6047  158.6750 C   0  0  0  0  0  0  0  0  0  0  0  0
   10.5871   14.6874  161.8703 C   0  0  0  0  0  0  0  0  0  0  0  0
    9.6152   14.1447  162.8116 C   0  0  0  0  0  0  0  0  0  0  0  0
    8.5884   14.9171  163.2912 C   0  0  0  0  0  0  0  0  0  0  0  0
    7.6743   14.3998  164.1903 C   0  0  0  0  0  0  0  0  0  0  0  0
    7.7861   13.0998  164.6144 C   0  0  0  0  0  0  0  0  0  0  0  0
    8.8278   12.3381  164.1192 C   0  0  0  0  0  0  0  0  0  0  0  0
    9.7605   12.8050  163.2260 C   0  0  0  0  0  0  0  0  0  0  0  0
   12.1089   12.6099  162.4325 C   0  0  0  0  0  0  0  0  0  0  0  0
    9.8949   10.0739  160.7802 C   0  0  0  0  0  0  0  0  0  0  0  0
   11.5594   16.6200  160.8531 C   0  0  0  0  0  0  0  0  0  0  0  0
   10.6041   10.2363  159.6038 C   0  0  0  0  0  0  0  0  0  0  0  0
   10.0154   10.0113  158.3775 C   0  0  0  0  0  0  0  0  0  0  0  0
    8.6923    9.6149  158.2885 C   0  0  0  0  0  0  0  0  0  0  0  0
    7.9809    9.4510  159.4384 C   0  0  0  0  0  0  0  0  0  0  0  0
    8.5794    9.6790  160.6684 C   0  0  0  0  0  0  0  0  0  0  0  0
    8.7707    9.9292  155.8538 C   0  0  0  0  0  0  0  0  0  0  0  0
   13.1606   12.3738  163.4574 C   0  0  0  0  0  0  0  0  0  0  0  0
   11.4630   18.0774  160.6434 C   0  0  0  0  0  0  0  0  0  0  0  0
   12.7300   18.8448  160.4892 C   0  0  0  0  0  0  0  0  0  0  0  0
   12.5488   20.2120  159.9451 C   0  0  0  0  0  0  0  0  0  0  0  0
   12.0091   21.1821  160.7788 C   0  0  0  0  0  0  0  0  0  0  0  0
   11.8132   22.4836  160.3592 C   0  0  0  0  0  0  0  0  0  0  0  0
   12.1548   22.8606  159.0776 C   0  0  0  0  0  0  0  0  0  0  0  0
   12.6884   21.9198  158.2388 C   0  0  0  0  0  0  0  0  0  0  0  0
   10.9264   16.0860  162.0322 N   0  0  2  0  0  4  0  0  0  0  0  0
   10.8250   12.0208  162.7027 N   0  0  0  0  0  0  0  0  0  0  0  0
   13.0647   13.2420  164.5391 O   0  0  0  0  0  0  0  0  0  0  0  0
   11.8928    9.5728  162.5121 O   0  0  0  0  0  0  0  0  0  0  0  0
    8.1721    9.4082  157.0191 O   0  0  0  0  0  0  0  0  0  0  0  0
    9.6111    9.8077  163.3592 O   0  0  0  0  0  0  0  0  0  0  0  0
   10.6160   10.3436  162.3477 S   0  0  2  0  0  6  0  0  0  0  0  0
   11.9017   24.5293  158.5470 Cl  0  0  0  0  0  0  0  0  0  0  0  0
 27  1  1  1
 22  2  2  0
  2 26  1  0
  4  3  1  0
  3 27  1  0
  4  5  2  0
  9  4  1  0
  5  6  1  0
  7  6  2  0
  8  7  1  0
  9  8  2  0
 28  9  1  0
 10 19  1  0
 28 10  1  0
 11 13  2  0
 11 17  1  0
 33 11  1  0
 12 20  1  0
 27 12  1  0
 13 14  1  0
 14 15  2  0
 16 15  1  0
 15 31  1  0
 17 16  2  0
 31 18  1  0
 19 29  1  0
 20 21  1  0
 21 22  1  0
 22 23  1  0
 23 24  2  0
 24 25  1  0
 26 25  2  0
 25 34  1  0
 33 28  1  1
 33 30  2  0
 33 32  2  0
M  CHG  1  27   1
M  END
$$$$
