
     RDKit          3D

 25 25  0  0  0  0  0  0  0  0999 V2000
   13.4299    7.0885   47.5683 C   0  0  0  0  0  0  0  0  0  0  0  0
   10.6061   20.5410   41.3896 O   0  0  0  0  0  0  0  0  0  0  0  0
    9.3566   22.3443   41.9649 O   0  0  0  0  0  0  0  0  0  0  0  0
    6.9727   21.8483   42.4418 O   0  0  0  0  0  0  0  0  0  0  0  0
    6.1424   18.5717   41.0915 C   0  0  0  0  0  0  0  0  0  0  0  0
    5.9586   19.7852   41.6840 C   0  0  0  0  0  0  0  0  0  0  0  0
    7.3964   18.1300   40.6516 C   0  0  0  0  0  0  0  0  0  0  0  0
   13.7742    7.7093   46.2330 C   0  0  0  0  0  0  0  0  0  0  0  0
   14.5630    9.0009   46.4689 C   0  0  0  0  0  0  0  0  0  0  0  0
   14.0916   10.0915   45.5715 C   0  0  0  0  0  0  0  0  0  0  0  0
   14.8344   11.3691   45.6873 C   0  0  0  0  0  0  0  0  0  0  0  0
   15.5330   11.9430   44.5368 C   0  0  0  0  0  0  0  0  0  0  0  0
   15.4716   13.3693   44.2130 C   0  0  0  0  0  0  0  0  0  0  0  0
   14.8180   13.7274   42.8942 C   0  0  0  0  0  0  0  0  0  0  0  0
   14.6698   15.2042   42.7975 C   0  0  0  0  0  0  0  0  0  0  0  0
   15.0221   15.7903   41.4249 C   0  0  0  0  0  0  0  0  0  0  0  0
   14.0762   16.8841   41.1012 C   0  0  0  0  0  0  0  0  0  0  0  0
   12.8399   16.5980   40.3767 C   0  0  0  0  0  0  0  0  0  0  0  0
   11.8483   17.5999   40.0011 C   0  0  0  0  0  0  0  0  0  0  0  0
   10.6682   17.7354   40.9118 C   0  0  0  0  0  0  0  0  0  0  0  0
    9.7404   18.6207   40.4367 O   0  0  0  0  0  0  0  0  0  0  0  0
    9.4667   21.0228   41.5899 C   0  0  0  0  0  0  0  0  0  0  0  0
    7.0758   20.5832   41.8400 C   0  0  0  0  0  0  0  0  0  0  0  0
    8.4970   18.9262   40.8084 C   0  0  0  0  0  0  0  0  0  0  0  0
    8.2965   20.1751   41.4212 C   0  0  0  0  0  0  0  0  0  0  0  0
  8  1  1  0
 22  2  2  0
 22  3  1  0
 23  4  1  0
  6  5  2  0
  5  7  1  0
 23  6  1  0
  7 24  2  0
  9  8  1  0
 10  9  1  0
 11 10  1  0
 12 11  1  0
 13 12  1  0
 14 13  1  0
 15 14  1  0
 16 15  1  0
 17 16  1  0
 18 17  1  0
 19 18  1  0
 20 19  1  0
 21 20  1  0
 24 21  1  0
 25 22  1  0
 23 25  2  0
 24 25  1  0
M  END
$$$$
