
     RDKit          3D

 25 25  0  0  0  0  0  0  0  0999 V2000
   13.6520    4.4465   43.5087 C   0  0  0  0  0  0  0  0  0  0  0  0
    6.7123   19.5205   41.5208 O   0  0  0  0  0  0  0  0  0  0  0  0
    8.0859   18.4417   40.0738 O   0  0  0  0  0  0  0  0  0  0  0  0
    7.4018   21.4979   42.7544 O   0  0  0  0  0  0  0  0  0  0  0  0
   11.0410   21.4396   42.7998 C   0  0  0  0  0  0  0  0  0  0  0  0
    9.7735   21.8503   43.0864 C   0  0  0  0  0  0  0  0  0  0  0  0
   11.3088   20.3492   41.9628 C   0  0  0  0  0  0  0  0  0  0  0  0
   12.9411    5.7806   43.5507 C   0  0  0  0  0  0  0  0  0  0  0  0
   13.8287    6.7994   44.2720 C   0  0  0  0  0  0  0  0  0  0  0  0
   13.4659    8.1931   43.8941 C   0  0  0  0  0  0  0  0  0  0  0  0
   14.1959    9.2556   44.6258 C   0  0  0  0  0  0  0  0  0  0  0  0
   14.0156   10.6672   44.2851 C   0  0  0  0  0  0  0  0  0  0  0  0
   15.0676   11.4611   43.6479 C   0  0  0  0  0  0  0  0  0  0  0  0
   14.7812   12.9393   43.4823 C   0  0  0  0  0  0  0  0  0  0  0  0
   14.8394   13.2986   42.0401 C   0  0  0  0  0  0  0  0  0  0  0  0
   14.8243   14.8060   41.7589 C   0  0  0  0  0  0  0  0  0  0  0  0
   13.5225   15.3714   42.1849 C   0  0  0  0  0  0  0  0  0  0  0  0
   12.4645   15.6039   41.2043 C   0  0  0  0  0  0  0  0  0  0  0  0
   12.0818   16.9155   40.6930 C   0  0  0  0  0  0  0  0  0  0  0  0
   10.6317   17.2700   40.8026 C   0  0  0  0  0  0  0  0  0  0  0  0
   10.4011   18.6004   40.5848 O   0  0  0  0  0  0  0  0  0  0  0  0
    7.8782   19.3400   41.0980 C   0  0  0  0  0  0  0  0  0  0  0  0
    8.7380   21.1393   42.5106 C   0  0  0  0  0  0  0  0  0  0  0  0
   10.2784   19.6500   41.3978 C   0  0  0  0  0  0  0  0  0  0  0  0
    8.9754   20.0822   41.6993 C   0  0  0  0  0  0  0  0  0  0  0  0
  8  1  1  0
 22  2  2  0
 22  3  1  0
 23  4  1  0
  6  5  2  0
  5  7  1  0
 23  6  1  0
  7 24  2  0
  9  8  1  0
 10  9  1  0
 11 10  1  0
 12 11  1  0
 13 12  1  0
 14 13  1  0
 15 14  1  0
 16 15  1  0
 17 16  1  0
 18 17  1  0
 19 18  1  0
 20 19  1  0
 21 20  1  0
 24 21  1  0
 25 22  1  0
 23 25  2  0
 24 25  1  0
M  END
$$$$
