
     RDKit          3D

 25 25  0  0  0  0  0  0  0  0999 V2000
   15.3555    8.7886   47.5765 C   0  0  0  0  0  0  0  0  0  0  0  0
    6.5653   20.0994   40.6804 O   0  0  0  0  0  0  0  0  0  0  0  0
    6.0916   21.9939   41.8339 O   0  0  0  0  0  0  0  0  0  0  0  0
    8.0235   23.3248   42.5740 O   0  0  0  0  0  0  0  0  0  0  0  0
   11.1067   21.6857   41.5463 C   0  0  0  0  0  0  0  0  0  0  0  0
   10.2931   22.6196   42.1148 C   0  0  0  0  0  0  0  0  0  0  0  0
   10.6098   20.5553   40.8856 C   0  0  0  0  0  0  0  0  0  0  0  0
   15.3099    9.1667   46.1130 C   0  0  0  0  0  0  0  0  0  0  0  0
   15.5441   10.6743   45.9769 C   0  0  0  0  0  0  0  0  0  0  0  0
   14.9137   11.2078   44.7380 C   0  0  0  0  0  0  0  0  0  0  0  0
   15.0845   12.6640   44.5200 C   0  0  0  0  0  0  0  0  0  0  0  0
   14.5539   13.3152   43.3218 C   0  0  0  0  0  0  0  0  0  0  0  0
   14.7421   14.7424   43.0559 C   0  0  0  0  0  0  0  0  0  0  0  0
   14.1519   15.2642   41.7620 C   0  0  0  0  0  0  0  0  0  0  0  0
   13.0120   14.4013   41.3519 C   0  0  0  0  0  0  0  0  0  0  0  0
   11.6627   15.1256   41.2714 C   0  0  0  0  0  0  0  0  0  0  0  0
   11.3134   15.3554   39.8497 C   0  0  0  0  0  0  0  0  0  0  0  0
   10.0282   15.9531   39.4946 C   0  0  0  0  0  0  0  0  0  0  0  0
    9.7855   17.3866   39.3749 C   0  0  0  0  0  0  0  0  0  0  0  0
    8.7821   17.9681   40.3211 C   0  0  0  0  0  0  0  0  0  0  0  0
    8.6650   19.3245   40.1900 O   0  0  0  0  0  0  0  0  0  0  0  0
    6.9948   21.1110   41.2826 C   0  0  0  0  0  0  0  0  0  0  0  0
    8.9310   22.4095   42.0155 C   0  0  0  0  0  0  0  0  0  0  0  0
    9.2605   20.3539   40.7927 C   0  0  0  0  0  0  0  0  0  0  0  0
    8.4306   21.3232   41.3817 C   0  0  0  0  0  0  0  0  0  0  0  0
  8  1  1  0
 22  2  2  0
 22  3  1  0
 23  4  1  0
  6  5  2  0
  5  7  1  0
 23  6  1  0
  7 24  2  0
  9  8  1  0
 10  9  1  0
 11 10  1  0
 12 11  1  0
 13 12  1  0
 14 13  1  0
 15 14  1  0
 16 15  1  0
 17 16  1  0
 18 17  1  0
 19 18  1  0
 20 19  1  0
 21 20  1  0
 24 21  1  0
 25 22  1  0
 23 25  2  0
 24 25  1  0
M  END
$$$$
