
     RDKit          3D

 25 25  0  0  0  0  0  0  0  0999 V2000
   14.5905    6.5127   45.5808 C   0  0  0  0  0  0  0  0  0  0  0  0
   10.8186   21.0974   41.5063 O   0  0  0  0  0  0  0  0  0  0  0  0
   10.0818   22.6096   43.0277 O   0  0  0  0  0  0  0  0  0  0  0  0
    7.6406   22.8151   43.2565 O   0  0  0  0  0  0  0  0  0  0  0  0
    5.9995   20.3976   41.0859 C   0  0  0  0  0  0  0  0  0  0  0  0
    6.1316   21.3971   42.0029 C   0  0  0  0  0  0  0  0  0  0  0  0
    7.1008   19.7821   40.4781 C   0  0  0  0  0  0  0  0  0  0  0  0
   14.5000    7.3512   44.3256 C   0  0  0  0  0  0  0  0  0  0  0  0
   15.2201    8.6828   44.5589 C   0  0  0  0  0  0  0  0  0  0  0  0
   15.1363    9.5584   43.3575 C   0  0  0  0  0  0  0  0  0  0  0  0
   15.7857   10.8837   43.4962 C   0  0  0  0  0  0  0  0  0  0  0  0
   15.8439   11.8171   42.3708 C   0  0  0  0  0  0  0  0  0  0  0  0
   15.0603   13.0532   42.3353 C   0  0  0  0  0  0  0  0  0  0  0  0
   14.0699   13.1837   41.1966 C   0  0  0  0  0  0  0  0  0  0  0  0
   13.3679   14.4913   41.2957 C   0  0  0  0  0  0  0  0  0  0  0  0
   12.4325   14.8018   40.1208 C   0  0  0  0  0  0  0  0  0  0  0  0
   11.3653   15.7246   40.5741 C   0  0  0  0  0  0  0  0  0  0  0  0
   10.3057   16.1332   39.6547 C   0  0  0  0  0  0  0  0  0  0  0  0
    9.9350   17.5170   39.3795 C   0  0  0  0  0  0  0  0  0  0  0  0
   10.1620   18.4951   40.4896 C   0  0  0  0  0  0  0  0  0  0  0  0
    9.4955   19.6730   40.2926 O   0  0  0  0  0  0  0  0  0  0  0  0
    9.8444   21.6334   42.0844 C   0  0  0  0  0  0  0  0  0  0  0  0
    7.4172   21.7920   42.3202 C   0  0  0  0  0  0  0  0  0  0  0  0
    8.3698   20.1795   40.7965 C   0  0  0  0  0  0  0  0  0  0  0  0
    8.4949   21.2104   41.7436 C   0  0  0  0  0  0  0  0  0  0  0  0
  8  1  1  0
 22  2  2  0
 22  3  1  0
 23  4  1  0
  6  5  2  0
  5  7  1  0
 23  6  1  0
  7 24  2  0
  9  8  1  0
 10  9  1  0
 11 10  1  0
 12 11  1  0
 13 12  1  0
 14 13  1  0
 15 14  1  0
 16 15  1  0
 17 16  1  0
 18 17  1  0
 19 18  1  0
 20 19  1  0
 21 20  1  0
 24 21  1  0
 25 22  1  0
 23 25  2  0
 24 25  1  0
M  END
$$$$
