
     RDKit          3D

 25 25  0  0  0  0  0  0  0  0999 V2000
   23.1096   19.8176   38.7552 C   0  0  0  0  0  0  0  0  0  0  0  0
    8.4261   23.1135   41.0411 O   0  0  0  0  0  0  0  0  0  0  0  0
   10.2261   21.7379   41.1495 O   0  0  0  0  0  0  0  0  0  0  0  0
    6.5292   22.1481   42.5880 O   0  0  0  0  0  0  0  0  0  0  0  0
    6.1950   18.7559   41.3113 C   0  0  0  0  0  0  0  0  0  0  0  0
    5.8791   19.8942   41.9907 C   0  0  0  0  0  0  0  0  0  0  0  0
    7.3723   18.6264   40.5639 C   0  0  0  0  0  0  0  0  0  0  0  0
   22.1322   18.9138   39.4728 C   0  0  0  0  0  0  0  0  0  0  0  0
   20.7344   19.1154   38.8798 C   0  0  0  0  0  0  0  0  0  0  0  0
   19.7386   18.2203   39.5310 C   0  0  0  0  0  0  0  0  0  0  0  0
   19.2059   18.7057   40.8263 C   0  0  0  0  0  0  0  0  0  0  0  0
   18.3040   17.8789   41.6290 C   0  0  0  0  0  0  0  0  0  0  0  0
   17.2661   17.0394   41.0283 C   0  0  0  0  0  0  0  0  0  0  0  0
   16.4048   16.2498   41.9924 C   0  0  0  0  0  0  0  0  0  0  0  0
   15.0597   16.8778   42.0862 C   0  0  0  0  0  0  0  0  0  0  0  0
   14.1144   16.5325   40.9292 C   0  0  0  0  0  0  0  0  0  0  0  0
   12.8145   17.2127   41.1382 C   0  0  0  0  0  0  0  0  0  0  0  0
   11.6911   16.9450   40.2429 C   0  0  0  0  0  0  0  0  0  0  0  0
   11.0181   17.9543   39.4326 C   0  0  0  0  0  0  0  0  0  0  0  0
   10.6700   19.2341   40.1264 C   0  0  0  0  0  0  0  0  0  0  0  0
    9.4088   19.6671   39.8221 O   0  0  0  0  0  0  0  0  0  0  0  0
    8.8635   21.9422   41.1266 C   0  0  0  0  0  0  0  0  0  0  0  0
    6.7792   20.9400   41.9162 C   0  0  0  0  0  0  0  0  0  0  0  0
    8.2573   19.6664   40.4940 C   0  0  0  0  0  0  0  0  0  0  0  0
    7.9222   20.8353   41.1989 C   0  0  0  0  0  0  0  0  0  0  0  0
  8  1  1  0
 22  2  2  0
 22  3  1  0
 23  4  1  0
  6  5  2  0
  5  7  1  0
 23  6  1  0
  7 24  2  0
  9  8  1  0
 10  9  1  0
 11 10  1  0
 12 11  1  0
 13 12  1  0
 14 13  1  0
 15 14  1  0
 16 15  1  0
 17 16  1  0
 18 17  1  0
 19 18  1  0
 20 19  1  0
 21 20  1  0
 24 21  1  0
 25 22  1  0
 23 25  2  0
 24 25  1  0
M  END
$$$$
