
     RDKit          3D

 25 25  0  0  0  0  0  0  0  0999 V2000
   13.9227    6.4290   44.1837 C   0  0  0  0  0  0  0  0  0  0  0  0
    7.4092   18.7028   39.2561 O   0  0  0  0  0  0  0  0  0  0  0  0
    6.2545   20.6386   39.0042 O   0  0  0  0  0  0  0  0  0  0  0  0
    6.5107   22.2944   40.8066 O   0  0  0  0  0  0  0  0  0  0  0  0
    8.9254   21.0838   43.2465 C   0  0  0  0  0  0  0  0  0  0  0  0
    8.0279   21.9222   42.6556 C   0  0  0  0  0  0  0  0  0  0  0  0
    9.2595   19.8357   42.7063 C   0  0  0  0  0  0  0  0  0  0  0  0
   13.8150    7.7336   43.4266 C   0  0  0  0  0  0  0  0  0  0  0  0
   14.1066    8.8940   44.3829 C   0  0  0  0  0  0  0  0  0  0  0  0
   14.0263   10.2044   43.6804 C   0  0  0  0  0  0  0  0  0  0  0  0
   14.2601   11.3934   44.5343 C   0  0  0  0  0  0  0  0  0  0  0  0
   14.2081   12.7452   43.9764 C   0  0  0  0  0  0  0  0  0  0  0  0
   14.9082   13.1131   42.7446 C   0  0  0  0  0  0  0  0  0  0  0  0
   14.9202   14.5877   42.3981 C   0  0  0  0  0  0  0  0  0  0  0  0
   13.5704   14.9990   41.9279 C   0  0  0  0  0  0  0  0  0  0  0  0
   13.5688   15.7971   40.6184 C   0  0  0  0  0  0  0  0  0  0  0  0
   12.2398   15.6787   39.9735 C   0  0  0  0  0  0  0  0  0  0  0  0
   11.7502   16.7394   39.0959 C   0  0  0  0  0  0  0  0  0  0  0  0
   10.5969   17.5857   39.3819 C   0  0  0  0  0  0  0  0  0  0  0  0
   10.0362   17.4925   40.7666 C   0  0  0  0  0  0  0  0  0  0  0  0
    8.9125   18.2554   40.9278 O   0  0  0  0  0  0  0  0  0  0  0  0
    7.1355   19.8414   39.7024 C   0  0  0  0  0  0  0  0  0  0  0  0
    7.4455   21.4902   41.4794 C   0  0  0  0  0  0  0  0  0  0  0  0
    8.6777   19.4148   41.5426 C   0  0  0  0  0  0  0  0  0  0  0  0
    7.7543   20.2872   40.9412 C   0  0  0  0  0  0  0  0  0  0  0  0
  8  1  1  0
 22  2  2  0
 22  3  1  0
 23  4  1  0
  6  5  2  0
  5  7  1  0
 23  6  1  0
  7 24  2  0
  9  8  1  0
 10  9  1  0
 11 10  1  0
 12 11  1  0
 13 12  1  0
 14 13  1  0
 15 14  1  0
 16 15  1  0
 17 16  1  0
 18 17  1  0
 19 18  1  0
 20 19  1  0
 21 20  1  0
 24 21  1  0
 25 22  1  0
 23 25  2  0
 24 25  1  0
M  END
$$$$
