
     RDKit          3D

 25 25  0  0  0  0  0  0  0  0999 V2000
   16.3309    4.6200   44.4541 C   0  0  0  0  0  0  0  0  0  0  0  0
   10.9513   22.4306   40.3220 O   0  0  0  0  0  0  0  0  0  0  0  0
   10.0651   20.3754   39.9545 O   0  0  0  0  0  0  0  0  0  0  0  0
   12.6082   22.8805   42.0284 O   0  0  0  0  0  0  0  0  0  0  0  0
   14.0053   19.6546   42.9721 C   0  0  0  0  0  0  0  0  0  0  0  0
   13.8428   21.0073   42.9372 C   0  0  0  0  0  0  0  0  0  0  0  0
   13.2065   18.7801   42.2249 C   0  0  0  0  0  0  0  0  0  0  0  0
   15.8132    5.9370   44.9872 C   0  0  0  0  0  0  0  0  0  0  0  0
   15.8659    6.9852   43.8716 C   0  0  0  0  0  0  0  0  0  0  0  0
   14.5864    7.7413   43.7816 C   0  0  0  0  0  0  0  0  0  0  0  0
   14.6198    8.9360   42.9047 C   0  0  0  0  0  0  0  0  0  0  0  0
   13.4748    9.8433   42.8213 C   0  0  0  0  0  0  0  0  0  0  0  0
   13.3856   10.9037   41.8161 C   0  0  0  0  0  0  0  0  0  0  0  0
   12.0998   11.7045   41.8023 C   0  0  0  0  0  0  0  0  0  0  0  0
   12.1063   12.6355   40.6423 C   0  0  0  0  0  0  0  0  0  0  0  0
   10.8222   13.4578   40.4793 C   0  0  0  0  0  0  0  0  0  0  0  0
   11.1632   14.8010   39.9544 C   0  0  0  0  0  0  0  0  0  0  0  0
   10.1065   15.7655   39.6575 C   0  0  0  0  0  0  0  0  0  0  0  0
   10.3306   17.0960   39.1027 C   0  0  0  0  0  0  0  0  0  0  0  0
   11.5820   17.7916   39.5389 C   0  0  0  0  0  0  0  0  0  0  0  0
   11.3943   18.5497   40.6617 O   0  0  0  0  0  0  0  0  0  0  0  0
   11.0058   21.1971   40.5367 C   0  0  0  0  0  0  0  0  0  0  0  0
   12.8412   21.4984   42.1218 C   0  0  0  0  0  0  0  0  0  0  0  0
   12.2165   19.2739   41.4213 C   0  0  0  0  0  0  0  0  0  0  0  0
   12.0578   20.6701   41.3922 C   0  0  0  0  0  0  0  0  0  0  0  0
  8  1  1  0
 22  2  2  0
 22  3  1  0
 23  4  1  0
  6  5  2  0
  5  7  1  0
 23  6  1  0
  7 24  2  0
  9  8  1  0
 10  9  1  0
 11 10  1  0
 12 11  1  0
 13 12  1  0
 14 13  1  0
 15 14  1  0
 16 15  1  0
 17 16  1  0
 18 17  1  0
 19 18  1  0
 20 19  1  0
 21 20  1  0
 24 21  1  0
 25 22  1  0
 23 25  2  0
 24 25  1  0
M  END
$$$$
