
     RDKit          3D

 25 25  0  0  0  0  0  0  0  0999 V2000
   13.1746    5.7342   42.8480 C   0  0  0  0  0  0  0  0  0  0  0  0
   11.3680   20.3335   40.6664 O   0  0  0  0  0  0  0  0  0  0  0  0
   10.6586   22.2516   41.6471 O   0  0  0  0  0  0  0  0  0  0  0  0
    8.2065   22.4845   41.8642 O   0  0  0  0  0  0  0  0  0  0  0  0
    6.6267   19.2729   41.2018 C   0  0  0  0  0  0  0  0  0  0  0  0
    6.7378   20.5869   41.5461 C   0  0  0  0  0  0  0  0  0  0  0  0
    7.7314   18.4935   40.8365 C   0  0  0  0  0  0  0  0  0  0  0  0
   14.5647    6.2886   43.0655 C   0  0  0  0  0  0  0  0  0  0  0  0
   14.5061    7.3843   44.1341 C   0  0  0  0  0  0  0  0  0  0  0  0
   15.3931    8.5275   43.7828 C   0  0  0  0  0  0  0  0  0  0  0  0
   15.8091    9.3772   44.9240 C   0  0  0  0  0  0  0  0  0  0  0  0
   15.3692   10.7689   45.0286 C   0  0  0  0  0  0  0  0  0  0  0  0
   15.1702   11.6193   43.8537 C   0  0  0  0  0  0  0  0  0  0  0  0
   14.4822   12.9464   44.0986 C   0  0  0  0  0  0  0  0  0  0  0  0
   14.4675   13.7385   42.8398 C   0  0  0  0  0  0  0  0  0  0  0  0
   13.6572   15.0383   42.9154 C   0  0  0  0  0  0  0  0  0  0  0  0
   13.3603   15.5118   41.5430 C   0  0  0  0  0  0  0  0  0  0  0  0
   11.9829   15.5417   41.0563 C   0  0  0  0  0  0  0  0  0  0  0  0
   10.9505   16.4491   41.5451 C   0  0  0  0  0  0  0  0  0  0  0  0
   11.1406   17.8992   41.2265 C   0  0  0  0  0  0  0  0  0  0  0  0
   10.1091   18.4118   40.4891 O   0  0  0  0  0  0  0  0  0  0  0  0
   10.4159   20.9895   41.1498 C   0  0  0  0  0  0  0  0  0  0  0  0
    8.0052   21.1369   41.5224 C   0  0  0  0  0  0  0  0  0  0  0  0
    8.9821   19.0456   40.8143 C   0  0  0  0  0  0  0  0  0  0  0  0
    9.0857   20.4010   41.1717 C   0  0  0  0  0  0  0  0  0  0  0  0
  8  1  1  0
 22  2  2  0
 22  3  1  0
 23  4  1  0
  6  5  2  0
  5  7  1  0
 23  6  1  0
  7 24  2  0
  9  8  1  0
 10  9  1  0
 11 10  1  0
 12 11  1  0
 13 12  1  0
 14 13  1  0
 15 14  1  0
 16 15  1  0
 17 16  1  0
 18 17  1  0
 19 18  1  0
 20 19  1  0
 21 20  1  0
 24 21  1  0
 25 22  1  0
 23 25  2  0
 24 25  1  0
M  END
$$$$
