
     RDKit          3D

 25 25  0  0  0  0  0  0  0  0999 V2000
   14.0089    5.2501   46.5354 C   0  0  0  0  0  0  0  0  0  0  0  0
   10.7408   21.3442   41.7800 O   0  0  0  0  0  0  0  0  0  0  0  0
    8.7463   22.3276   42.2267 O   0  0  0  0  0  0  0  0  0  0  0  0
    6.7509   21.0107   41.6001 O   0  0  0  0  0  0  0  0  0  0  0  0
    7.7502   17.5968   40.8283 C   0  0  0  0  0  0  0  0  0  0  0  0
    6.9277   18.6635   41.0357 C   0  0  0  0  0  0  0  0  0  0  0  0
    9.1432   17.6861   40.9416 C   0  0  0  0  0  0  0  0  0  0  0  0
   13.9738    6.0342   45.2428 C   0  0  0  0  0  0  0  0  0  0  0  0
   14.3300    7.4954   45.5328 C   0  0  0  0  0  0  0  0  0  0  0  0
   14.3580    8.3018   44.2814 C   0  0  0  0  0  0  0  0  0  0  0  0
   14.7082    9.7311   44.4595 C   0  0  0  0  0  0  0  0  0  0  0  0
   14.8208   10.6295   43.3100 C   0  0  0  0  0  0  0  0  0  0  0  0
   15.1374   12.0516   43.4537 C   0  0  0  0  0  0  0  0  0  0  0  0
   14.2292   13.0156   42.7186 C   0  0  0  0  0  0  0  0  0  0  0  0
   15.0528   13.9819   41.9438 C   0  0  0  0  0  0  0  0  0  0  0  0
   14.7061   15.4551   42.1912 C   0  0  0  0  0  0  0  0  0  0  0  0
   13.7230   15.9046   41.1775 C   0  0  0  0  0  0  0  0  0  0  0  0
   13.8382   17.2322   40.5782 C   0  0  0  0  0  0  0  0  0  0  0  0
   13.3224   18.4590   41.1757 C   0  0  0  0  0  0  0  0  0  0  0  0
   12.0935   19.0353   40.5447 C   0  0  0  0  0  0  0  0  0  0  0  0
   11.0374   19.0902   41.4120 O   0  0  0  0  0  0  0  0  0  0  0  0
    9.4932   21.2379   41.8345 C   0  0  0  0  0  0  0  0  0  0  0  0
    7.5272   19.8630   41.3691 C   0  0  0  0  0  0  0  0  0  0  0  0
    9.7289   18.8770   41.2707 C   0  0  0  0  0  0  0  0  0  0  0  0
    8.8717   19.9704   41.4831 C   0  0  0  0  0  0  0  0  0  0  0  0
  8  1  1  0
 22  2  2  0
 22  3  1  0
 23  4  1  0
  6  5  2  0
  5  7  1  0
 23  6  1  0
  7 24  2  0
  9  8  1  0
 10  9  1  0
 11 10  1  0
 12 11  1  0
 13 12  1  0
 14 13  1  0
 15 14  1  0
 16 15  1  0
 17 16  1  0
 18 17  1  0
 19 18  1  0
 20 19  1  0
 21 20  1  0
 24 21  1  0
 25 22  1  0
 23 25  2  0
 24 25  1  0
M  END
$$$$
