
     RDKit          3D

 25 25  0  0  0  0  0  0  0  0999 V2000
   13.9822    4.4899   45.0959 C   0  0  0  0  0  0  0  0  0  0  0  0
    6.6373   18.3150   41.1485 O   0  0  0  0  0  0  0  0  0  0  0  0
    8.3119   17.9064   39.6744 O   0  0  0  0  0  0  0  0  0  0  0  0
    6.5750   20.3297   42.5163 O   0  0  0  0  0  0  0  0  0  0  0  0
   10.0148   21.5007   42.7293 C   0  0  0  0  0  0  0  0  0  0  0  0
    8.6768   21.4371   42.9803 C   0  0  0  0  0  0  0  0  0  0  0  0
   10.6572   20.6292   41.8411 C   0  0  0  0  0  0  0  0  0  0  0  0
   13.9999    5.9207   45.5852 C   0  0  0  0  0  0  0  0  0  0  0  0
   13.5104    6.8407   44.4627 C   0  0  0  0  0  0  0  0  0  0  0  0
   14.0022    8.2330   44.6542 C   0  0  0  0  0  0  0  0  0  0  0  0
   13.5689    9.2030   43.6203 C   0  0  0  0  0  0  0  0  0  0  0  0
   14.1750   10.5318   43.5308 C   0  0  0  0  0  0  0  0  0  0  0  0
   14.9266   10.9738   42.3549 C   0  0  0  0  0  0  0  0  0  0  0  0
   15.4253   12.4040   42.3797 C   0  0  0  0  0  0  0  0  0  0  0  0
   14.4770   13.2741   41.6341 C   0  0  0  0  0  0  0  0  0  0  0  0
   13.9643   14.4824   42.4272 C   0  0  0  0  0  0  0  0  0  0  0  0
   13.9321   15.6714   41.5433 C   0  0  0  0  0  0  0  0  0  0  0  0
   12.6544   16.2521   41.1367 C   0  0  0  0  0  0  0  0  0  0  0  0
   12.3022   17.6608   41.2764 C   0  0  0  0  0  0  0  0  0  0  0  0
   11.6923   18.3118   40.0744 C   0  0  0  0  0  0  0  0  0  0  0  0
   10.4314   18.7823   40.3183 O   0  0  0  0  0  0  0  0  0  0  0  0
    7.7961   18.5867   40.7561 C   0  0  0  0  0  0  0  0  0  0  0  0
    7.9588   20.4622   42.3144 C   0  0  0  0  0  0  0  0  0  0  0  0
    9.9399   19.6663   41.1869 C   0  0  0  0  0  0  0  0  0  0  0  0
    8.5608   19.6098   41.4524 C   0  0  0  0  0  0  0  0  0  0  0  0
  8  1  1  0
 22  2  2  0
 22  3  1  0
 23  4  1  0
  6  5  2  0
  5  7  1  0
 23  6  1  0
  7 24  2  0
  9  8  1  0
 10  9  1  0
 11 10  1  0
 12 11  1  0
 13 12  1  0
 14 13  1  0
 15 14  1  0
 16 15  1  0
 17 16  1  0
 18 17  1  0
 19 18  1  0
 20 19  1  0
 21 20  1  0
 24 21  1  0
 25 22  1  0
 23 25  2  0
 24 25  1  0
M  END
$$$$
