
     RDKit          3D

 25 25  0  0  0  0  0  0  0  0999 V2000
   12.9770    3.4620   43.7740 C   0  0  0  0  0  0  0  0  0  0  0  0
    8.4852   17.7997   40.2185 O   0  0  0  0  0  0  0  0  0  0  0  0
    7.8060   19.5471   38.9420 O   0  0  0  0  0  0  0  0  0  0  0  0
    8.4756   21.7830   39.7189 O   0  0  0  0  0  0  0  0  0  0  0  0
   10.4449   21.4827   42.7653 C   0  0  0  0  0  0  0  0  0  0  0  0
    9.8061   22.0786   41.7193 C   0  0  0  0  0  0  0  0  0  0  0  0
   10.4581   20.0943   42.9481 C   0  0  0  0  0  0  0  0  0  0  0  0
   13.7235    4.6961   44.2283 C   0  0  0  0  0  0  0  0  0  0  0  0
   13.2735    5.8932   43.3854 C   0  0  0  0  0  0  0  0  0  0  0  0
   14.1631    7.0679   43.5994 C   0  0  0  0  0  0  0  0  0  0  0  0
   13.7869    8.2893   42.8486 C   0  0  0  0  0  0  0  0  0  0  0  0
   14.5971    9.5051   42.9303 C   0  0  0  0  0  0  0  0  0  0  0  0
   14.4498   10.6113   41.9829 C   0  0  0  0  0  0  0  0  0  0  0  0
   14.3375   11.9965   42.5857 C   0  0  0  0  0  0  0  0  0  0  0  0
   13.4327   12.8304   41.7501 C   0  0  0  0  0  0  0  0  0  0  0  0
   14.1195   14.0101   41.0513 C   0  0  0  0  0  0  0  0  0  0  0  0
   13.3282   15.2424   41.2775 C   0  0  0  0  0  0  0  0  0  0  0  0
   11.9929   15.3764   40.6996 C   0  0  0  0  0  0  0  0  0  0  0  0
   11.1707   16.5787   40.7821 C   0  0  0  0  0  0  0  0  0  0  0  0
   10.7101   16.9714   42.1510 C   0  0  0  0  0  0  0  0  0  0  0  0
    9.7545   17.9494   42.1202 O   0  0  0  0  0  0  0  0  0  0  0  0
    8.4718   19.0396   40.0366 C   0  0  0  0  0  0  0  0  0  0  0  0
    9.1575   21.2488   40.8249 C   0  0  0  0  0  0  0  0  0  0  0  0
    9.8128   19.2800   42.0592 C   0  0  0  0  0  0  0  0  0  0  0  0
    9.1579   19.9047   40.9839 C   0  0  0  0  0  0  0  0  0  0  0  0
  8  1  1  0
 22  2  2  0
 22  3  1  0
 23  4  1  0
  6  5  2  0
  5  7  1  0
 23  6  1  0
  7 24  2  0
  9  8  1  0
 10  9  1  0
 11 10  1  0
 12 11  1  0
 13 12  1  0
 14 13  1  0
 15 14  1  0
 16 15  1  0
 17 16  1  0
 18 17  1  0
 19 18  1  0
 20 19  1  0
 21 20  1  0
 24 21  1  0
 25 22  1  0
 23 25  2  0
 24 25  1  0
M  END
$$$$
