
     RDKit          3D

 25 25  0  0  0  0  0  0  0  0999 V2000
   13.5350    2.2740   42.3483 C   0  0  0  0  0  0  0  0  0  0  0  0
    9.3023   17.7977   41.3591 O   0  0  0  0  0  0  0  0  0  0  0  0
    7.8871   19.5700   41.3745 O   0  0  0  0  0  0  0  0  0  0  0  0
    8.9185   21.7842   41.0836 O   0  0  0  0  0  0  0  0  0  0  0  0
   12.5161   21.4156   40.6711 C   0  0  0  0  0  0  0  0  0  0  0  0
   11.3058   22.0340   40.7714 C   0  0  0  0  0  0  0  0  0  0  0  0
   12.6620   20.0257   40.7619 C   0  0  0  0  0  0  0  0  0  0  0  0
   13.4335    3.3526   41.2933 C   0  0  0  0  0  0  0  0  0  0  0  0
   13.9677    4.6681   41.8679 C   0  0  0  0  0  0  0  0  0  0  0  0
   13.7929    5.7882   40.9025 C   0  0  0  0  0  0  0  0  0  0  0  0
   12.5180    6.5342   41.0257 C   0  0  0  0  0  0  0  0  0  0  0  0
   12.1472    7.5612   40.0515 C   0  0  0  0  0  0  0  0  0  0  0  0
   12.6740    8.9257   40.1110 C   0  0  0  0  0  0  0  0  0  0  0  0
   11.7562    9.9705   40.7115 C   0  0  0  0  0  0  0  0  0  0  0  0
   12.2390   11.3279   40.3419 C   0  0  0  0  0  0  0  0  0  0  0  0
   12.8275   12.1329   41.5069 C   0  0  0  0  0  0  0  0  0  0  0  0
   12.7819   13.5771   41.1777 C   0  0  0  0  0  0  0  0  0  0  0  0
   12.3513   14.5477   42.1814 C   0  0  0  0  0  0  0  0  0  0  0  0
   11.4738   15.6822   41.9146 C   0  0  0  0  0  0  0  0  0  0  0  0
   12.1090   17.0363   41.9706 C   0  0  0  0  0  0  0  0  0  0  0  0
   11.5715   17.9037   41.0599 O   0  0  0  0  0  0  0  0  0  0  0  0
    9.1545   19.0390   41.2706 C   0  0  0  0  0  0  0  0  0  0  0  0
   10.2025   21.2261   40.9701 C   0  0  0  0  0  0  0  0  0  0  0  0
   11.5654   19.2332   40.9598 C   0  0  0  0  0  0  0  0  0  0  0  0
   10.3222   19.8809   41.0612 C   0  0  0  0  0  0  0  0  0  0  0  0
  8  1  1  0
 22  2  2  0
 22  3  1  0
 23  4  1  0
  6  5  2  0
  5  7  1  0
 23  6  1  0
  7 24  2  0
  9  8  1  0
 10  9  1  0
 11 10  1  0
 12 11  1  0
 13 12  1  0
 14 13  1  0
 15 14  1  0
 16 15  1  0
 17 16  1  0
 18 17  1  0
 19 18  1  0
 20 19  1  0
 21 20  1  0
 24 21  1  0
 25 22  1  0
 23 25  2  0
 24 25  1  0
M  END
$$$$
