
     RDKit          3D

 25 25  0  0  0  0  0  0  0  0999 V2000
   14.5321    4.5696   43.0854 C   0  0  0  0  0  0  0  0  0  0  0  0
   10.3387   22.5483   41.0662 O   0  0  0  0  0  0  0  0  0  0  0  0
   11.6228   20.8057   40.3888 O   0  0  0  0  0  0  0  0  0  0  0  0
    7.9093   22.3697   41.2259 O   0  0  0  0  0  0  0  0  0  0  0  0
    7.2032   18.8306   41.6998 C   0  0  0  0  0  0  0  0  0  0  0  0
    6.9731   20.1708   41.6099 C   0  0  0  0  0  0  0  0  0  0  0  0
    8.4750   18.2709   41.5251 C   0  0  0  0  0  0  0  0  0  0  0  0
   13.9768    5.7528   43.8460 C   0  0  0  0  0  0  0  0  0  0  0  0
   14.9460    6.9318   43.7169 C   0  0  0  0  0  0  0  0  0  0  0  0
   14.2315    8.2325   43.8374 C   0  0  0  0  0  0  0  0  0  0  0  0
   15.1053    9.4266   43.9252 C   0  0  0  0  0  0  0  0  0  0  0  0
   14.5651   10.7304   44.3119 C   0  0  0  0  0  0  0  0  0  0  0  0
   14.1737   11.7408   43.3275 C   0  0  0  0  0  0  0  0  0  0  0  0
   15.2800   12.6429   42.8204 C   0  0  0  0  0  0  0  0  0  0  0  0
   14.7038   13.9484   42.4008 C   0  0  0  0  0  0  0  0  0  0  0  0
   13.9214   13.9042   41.0826 C   0  0  0  0  0  0  0  0  0  0  0  0
   13.1083   15.1363   40.9534 C   0  0  0  0  0  0  0  0  0  0  0  0
   11.6897   15.1224   41.3036 C   0  0  0  0  0  0  0  0  0  0  0  0
   10.8257   16.2978   41.3093 C   0  0  0  0  0  0  0  0  0  0  0  0
   11.3490   17.5059   40.5973 C   0  0  0  0  0  0  0  0  0  0  0  0
   10.8020   18.6677   41.0681 O   0  0  0  0  0  0  0  0  0  0  0  0
   10.4366   21.3141   40.8720 C   0  0  0  0  0  0  0  0  0  0  0  0
    8.0607   20.9774   41.3345 C   0  0  0  0  0  0  0  0  0  0  0  0
    9.5460   19.0758   41.2516 C   0  0  0  0  0  0  0  0  0  0  0  0
    9.2979   20.4563   41.1617 C   0  0  0  0  0  0  0  0  0  0  0  0
  8  1  1  0
 22  2  2  0
 22  3  1  0
 23  4  1  0
  6  5  2  0
  5  7  1  0
 23  6  1  0
  7 24  2  0
  9  8  1  0
 10  9  1  0
 11 10  1  0
 12 11  1  0
 13 12  1  0
 14 13  1  0
 15 14  1  0
 16 15  1  0
 17 16  1  0
 18 17  1  0
 19 18  1  0
 20 19  1  0
 21 20  1  0
 24 21  1  0
 25 22  1  0
 23 25  2  0
 24 25  1  0
M  END
$$$$
