
     RDKit          3D

 33 37  0  0  0  0  0  0  0  0999 V2000
   27.1692   21.8270    7.9013 O   0  0  0  0  0  0  0  0  0  0  0  0
   27.6793   20.9586    8.6526 C   0  0  0  0  0  0  0  0  0  0  0  0
   26.7771   20.1756    9.4253 N   0  0  0  0  0  0  0  0  0  0  0  0
   29.1178   20.7809    8.7127 C   0  0  0  0  0  0  0  0  0  0  0  0
   29.6301   19.6669    9.3405 C   0  0  0  0  0  0  0  0  0  0  0  0
   30.9696   19.4412    9.4313 C   0  0  0  0  0  0  0  0  0  0  0  0
   31.4871   18.2292   10.1154 C   0  0  0  0  0  0  0  0  0  0  0  0
   29.9941   21.6994    8.1569 C   0  0  0  0  0  0  0  0  0  0  0  0
   31.3520   21.4732    8.2474 C   0  0  0  0  0  0  0  0  0  0  0  0
   31.8542   20.3471    8.8825 C   0  0  0  0  0  0  0  0  0  0  0  0
   33.2627   20.1520    8.9536 N   0  0  0  0  0  0  0  0  0  0  0  0
   34.1064   20.8103    9.7037 N   0  0  0  0  0  0  0  0  0  0  0  0
   35.3569   20.3538    9.5082 C   0  0  0  0  0  0  0  0  0  0  0  0
   36.5733   20.8516   10.1694 C   0  0  1  0  0  0  0  0  0  0  0  0
   36.7638   22.3454    9.8604 C   0  0  0  0  0  0  0  0  0  0  0  0
   36.3611   20.8076   11.7034 C   0  0  0  0  0  0  0  0  0  0  0  0
   35.2690   19.3515    8.5781 C   0  0  0  0  0  0  0  0  0  0  0  0
   33.9188   19.2225    8.2213 C   0  0  0  0  0  0  0  0  0  0  0  0
   33.5241   18.3160    7.3250 N   0  0  0  0  0  0  0  0  0  0  0  0
   34.3731   17.4779    6.7115 C   0  0  0  0  0  0  0  0  0  0  0  0
   35.6914   17.5682    7.0277 C   0  0  0  0  0  0  0  0  0  0  0  0
   36.1535   18.4983    7.9575 C   0  0  0  0  0  0  0  0  0  0  0  0
   37.5375   18.5543    8.2604 N   0  0  0  0  0  0  0  0  0  0  0  0
   38.4684   17.7159    7.7878 C   0  0  0  0  0  0  0  0  0  0  0  0
   39.6834   18.0929    8.2743 N   0  0  0  0  0  0  0  0  0  0  0  0
   38.1526   19.4477    9.0334 C   0  0  0  0  0  0  0  0  0  0  0  0
   39.5018   19.1758    9.0557 C   0  0  0  0  0  0  0  0  0  0  0  0
   40.5865   19.8570    9.7484 C   0  0  0  0  0  0  0  0  0  0  0  0
   41.9226   19.4746    9.8134 C   0  0  0  0  0  0  0  0  0  0  0  0
   42.5642   20.3899   10.5537 N   0  0  0  0  0  0  0  0  0  0  0  0
   40.5317   21.0233   10.4883 C   0  0  0  0  0  0  0  0  0  0  0  0
   41.7505   21.3248   10.9672 N   0  0  0  0  0  0  0  0  0  0  0  0
   42.0952   22.4677   11.7852 C   0  0  0  0  0  0  0  0  0  0  0  0
  1  2  2  0
  2  3  1  0
  2  4  1  0
  4  5  2  0
  4  8  1  0
  5  6  1  0
  7  6  1  6
  6 10  2  0
  8  9  2  0
  9 10  1  0
 10 11  1  0
 11 12  1  0
 11 18  1  0
 12 13  2  0
 14 13  1  6
 13 17  1  0
 15 14  1  6
 16 14  1  6
 17 18  2  0
 17 22  1  0
 18 19  1  0
 19 20  2  0
 20 21  1  0
 21 22  2  0
 22 23  1  0
 23 24  1  0
 23 26  1  0
 24 25  2  0
 25 27  1  0
 26 27  2  0
 27 28  1  0
 28 29  1  0
 28 31  2  0
 29 30  2  0
 30 32  1  0
 31 32  1  0
 33 32  1  6
M  END
$$$$
