
     RDKit          3D

 33 37  0  0  0  0  0  0  0  0999 V2000
   27.6088   19.2243    6.1136 O   0  0  0  0  0  0  0  0  0  0  0  0
   27.9905   19.2475    7.3105 C   0  0  0  0  0  0  0  0  0  0  0  0
   26.9885   19.0571    8.3024 N   0  0  0  0  0  0  0  0  0  0  0  0
   29.3871   19.4593    7.6407 C   0  0  0  0  0  0  0  0  0  0  0  0
   29.7720   19.4511    8.9633 C   0  0  0  0  0  0  0  0  0  0  0  0
   31.0662   19.6434    9.3399 C   0  0  0  0  0  0  0  0  0  0  0  0
   31.4458   19.6283   10.7753 C   0  0  0  0  0  0  0  0  0  0  0  0
   30.3478   19.6700    6.6643 C   0  0  0  0  0  0  0  0  0  0  0  0
   31.6599   19.8652    7.0432 C   0  0  0  0  0  0  0  0  0  0  0  0
   32.0337   19.8544    8.3787 C   0  0  0  0  0  0  0  0  0  0  0  0
   33.3989   20.0601    8.7263 N   0  0  0  0  0  0  0  0  0  0  0  0
   34.1512   19.2673    9.4430 N   0  0  0  0  0  0  0  0  0  0  0  0
   35.3873   19.7846    9.5658 C   0  0  0  0  0  0  0  0  0  0  0  0
   36.5079   19.1828   10.3051 C   0  0  1  0  0  0  0  0  0  0  0  0
   36.1472   19.0594   11.7944 C   0  0  0  0  0  0  0  0  0  0  0  0
   36.6846   17.7166    9.8369 C   0  0  0  0  0  0  0  0  0  0  0  0
   35.3877   20.9701    8.8787 C   0  0  0  0  0  0  0  0  0  0  0  0
   34.1057   21.1465    8.3383 C   0  0  0  0  0  0  0  0  0  0  0  0
   33.8045   22.2236    7.6103 N   0  0  0  0  0  0  0  0  0  0  0  0
   34.6886   23.1977    7.3469 C   0  0  0  0  0  0  0  0  0  0  0  0
   35.9435   23.0671    7.8511 C   0  0  0  0  0  0  0  0  0  0  0  0
   36.3072   21.9610    8.6173 C   0  0  0  0  0  0  0  0  0  0  0  0
   37.6296   21.8638    9.1196 N   0  0  0  0  0  0  0  0  0  0  0  0
   38.5767   22.8019    8.9942 C   0  0  0  0  0  0  0  0  0  0  0  0
   39.7058   22.3695    9.6210 N   0  0  0  0  0  0  0  0  0  0  0  0
   38.1502   20.8538    9.8144 C   0  0  0  0  0  0  0  0  0  0  0  0
   39.4543   21.1512   10.1395 C   0  0  0  0  0  0  0  0  0  0  0  0
   40.4373   20.3770   10.8842 C   0  0  0  0  0  0  0  0  0  0  0  0
   40.2329   19.1843   11.5706 C   0  0  0  0  0  0  0  0  0  0  0  0
   41.4079   18.8265   12.1081 N   0  0  0  0  0  0  0  0  0  0  0  0
   41.7788   20.6511   11.0737 C   0  0  0  0  0  0  0  0  0  0  0  0
   42.3458   19.6903   11.8228 N   0  0  0  0  0  0  0  0  0  0  0  0
   43.7316   19.6255   12.2347 C   0  0  0  0  0  0  0  0  0  0  0  0
  1  2  2  0
  2  3  1  0
  2  4  1  0
  4  5  2  0
  4  8  1  0
  5  6  1  0
  7  6  1  6
  6 10  2  0
  8  9  2  0
  9 10  1  0
 10 11  1  0
 11 12  1  0
 11 18  1  0
 12 13  2  0
 14 13  1  6
 13 17  1  0
 15 14  1  6
 16 14  1  6
 17 18  2  0
 17 22  1  0
 18 19  1  0
 19 20  2  0
 20 21  1  0
 21 22  2  0
 22 23  1  0
 23 24  1  0
 23 26  1  0
 24 25  2  0
 25 27  1  0
 26 27  2  0
 27 28  1  0
 28 29  1  0
 28 31  2  0
 29 30  2  0
 30 32  1  0
 31 32  1  0
 33 32  1  6
M  END
$$$$
