
     RDKit          3D

 33 37  0  0  0  0  0  0  0  0999 V2000
   26.6601   18.3730    7.8256 O   0  0  0  0  0  0  0  0  0  0  0  0
   27.0697   19.4448    8.3287 C   0  0  0  0  0  0  0  0  0  0  0  0
   26.1638   20.4802    8.6677 N   0  0  0  0  0  0  0  0  0  0  0  0
   28.4961   19.6066    8.5589 C   0  0  0  0  0  0  0  0  0  0  0  0
   29.4407   18.9149    7.8092 C   0  0  0  0  0  0  0  0  0  0  0  0
   30.7836   19.0397    7.9949 C   0  0  0  0  0  0  0  0  0  0  0  0
   31.7081   18.2404    7.1231 C   0  0  0  0  0  0  0  0  0  0  0  0
   28.9942   20.4504    9.5284 C   0  0  0  0  0  0  0  0  0  0  0  0
   30.3511   20.5902    9.7316 C   0  0  0  0  0  0  0  0  0  0  0  0
   31.2700   19.8921    8.9738 C   0  0  0  0  0  0  0  0  0  0  0  0
   32.6769   20.0299    9.1764 N   0  0  0  0  0  0  0  0  0  0  0  0
   33.5688   20.5875    8.4005 N   0  0  0  0  0  0  0  0  0  0  0  0
   34.8300   20.5252    8.9393 C   0  0  0  0  0  0  0  0  0  0  0  0
   36.0511   21.0638    8.2976 C   0  0  1  0  0  0  0  0  0  0  0  0
   36.6565   20.2191    7.2405 C   0  0  0  0  0  0  0  0  0  0  0  0
   36.1243   22.5398    8.1200 C   0  0  0  0  0  0  0  0  0  0  0  0
   34.6358   19.8689   10.1378 C   0  0  0  0  0  0  0  0  0  0  0  0
   33.2910   19.5587   10.2869 C   0  0  0  0  0  0  0  0  0  0  0  0
   32.8330   18.9189   11.3683 N   0  0  0  0  0  0  0  0  0  0  0  0
   33.6230   18.5323   12.3789 C   0  0  0  0  0  0  0  0  0  0  0  0
   34.9474   18.8240   12.2599 C   0  0  0  0  0  0  0  0  0  0  0  0
   35.4801   19.4985   11.1366 C   0  0  0  0  0  0  0  0  0  0  0  0
   36.8591   19.7579   11.1187 N   0  0  0  0  0  0  0  0  0  0  0  0
   37.3918   20.9391   10.8449 C   0  0  0  0  0  0  0  0  0  0  0  0
   38.7264   20.8212   10.8466 N   0  0  0  0  0  0  0  0  0  0  0  0
   37.8460   18.9112   11.2900 C   0  0  0  0  0  0  0  0  0  0  0  0
   39.0578   19.5485   11.1250 C   0  0  0  0  0  0  0  0  0  0  0  0
   40.4110   19.0122   11.2198 C   0  0  0  0  0  0  0  0  0  0  0  0
   41.5730   19.7319   11.0317 C   0  0  0  0  0  0  0  0  0  0  0  0
   42.6236   18.9336   11.1925 N   0  0  0  0  0  0  0  0  0  0  0  0
   40.8189   17.7325   11.5038 C   0  0  0  0  0  0  0  0  0  0  0  0
   42.1615   17.7318   11.4765 N   0  0  0  0  0  0  0  0  0  0  0  0
   42.9978   16.5824   11.7219 C   0  0  0  0  0  0  0  0  0  0  0  0
  1  2  2  0
  2  3  1  0
  2  4  1  0
  4  5  2  0
  4  8  1  0
  5  6  1  0
  6  7  1  0
  6 10  2  0
  8  9  2  0
  9 10  1  0
 10 11  1  0
 11 12  1  0
 11 18  1  0
 12 13  2  0
 13 14  1  0
 13 17  1  0
 14 15  1  6
 14 16  1  0
 17 18  2  0
 17 22  1  0
 18 19  1  0
 19 20  2  0
 20 21  1  0
 21 22  2  0
 22 23  1  0
 23 24  1  0
 23 26  1  0
 24 25  2  0
 25 27  1  0
 26 27  2  0
 27 28  1  0
 28 29  1  0
 28 31  2  0
 29 30  2  0
 30 32  1  0
 31 32  1  0
 32 33  1  0
M  END
$$$$
