
     RDKit          3D

 33 37  0  0  0  0  0  0  0  0999 V2000
   26.6436   21.2022    8.0464 O   0  0  0  0  0  0  0  0  0  0  0  0
   27.3944   20.2706    7.6630 C   0  0  0  0  0  0  0  0  0  0  0  0
   26.8485   19.3627    6.7132 N   0  0  0  0  0  0  0  0  0  0  0  0
   28.7455   20.1464    8.1761 C   0  0  0  0  0  0  0  0  0  0  0  0
   29.4706   19.0113    7.8877 C   0  0  0  0  0  0  0  0  0  0  0  0
   30.7428   18.8332    8.3385 C   0  0  0  0  0  0  0  0  0  0  0  0
   31.4955   17.5965    8.0083 C   0  0  0  0  0  0  0  0  0  0  0  0
   29.3303   21.1369    8.9492 C   0  0  0  0  0  0  0  0  0  0  0  0
   30.6194   20.9590    9.4074 C   0  0  0  0  0  0  0  0  0  0  0  0
   31.3382   19.8108    9.1094 C   0  0  0  0  0  0  0  0  0  0  0  0
   32.6661   19.6674    9.6023 N   0  0  0  0  0  0  0  0  0  0  0  0
   33.0184   19.2523   10.7904 N   0  0  0  0  0  0  0  0  0  0  0  0
   34.3593   19.2453   10.9019 C   0  0  0  0  0  0  0  0  0  0  0  0
   35.1269   18.8462   12.0918 C   0  0  1  0  0  0  0  0  0  0  0  0
   34.6280   19.6219   13.3217 C   0  0  0  0  0  0  0  0  0  0  0  0
   34.8033   17.3674   12.4216 C   0  0  0  0  0  0  0  0  0  0  0  0
   34.8561   19.6846    9.7028 C   0  0  0  0  0  0  0  0  0  0  0  0
   33.7638   19.9564    8.8662 C   0  0  0  0  0  0  0  0  0  0  0  0
   33.9408   20.4038    7.6215 N   0  0  0  0  0  0  0  0  0  0  0  0
   35.1528   20.6221    7.0893 C   0  0  0  0  0  0  0  0  0  0  0  0
   36.2395   20.3714    7.8652 C   0  0  0  0  0  0  0  0  0  0  0  0
   36.1073   19.9032    9.1715 C   0  0  0  0  0  0  0  0  0  0  0  0
   37.2693   19.6507    9.9438 N   0  0  0  0  0  0  0  0  0  0  0  0
   37.4165   18.6451   10.8156 C   0  0  0  0  0  0  0  0  0  0  0  0
   38.6688   18.7074   11.3471 N   0  0  0  0  0  0  0  0  0  0  0  0
   38.4095   20.3386    9.9235 C   0  0  0  0  0  0  0  0  0  0  0  0
   39.3027   19.7626   10.7983 C   0  0  0  0  0  0  0  0  0  0  0  0
   40.6691   20.1403   11.1309 C   0  0  0  0  0  0  0  0  0  0  0  0
   41.5597   19.4593   11.9547 C   0  0  0  0  0  0  0  0  0  0  0  0
   42.7004   20.1634   11.9778 N   0  0  0  0  0  0  0  0  0  0  0  0
   41.3791   21.2480   10.7071 C   0  0  0  0  0  0  0  0  0  0  0  0
   42.6135   21.2369   11.2380 N   0  0  0  0  0  0  0  0  0  0  0  0
   43.6488   22.2263   11.0296 C   0  0  0  0  0  0  0  0  0  0  0  0
  1  2  2  0
  2  3  1  0
  2  4  1  0
  4  5  2  0
  4  8  1  0
  5  6  1  0
  7  6  1  6
  6 10  2  0
  8  9  2  0
  9 10  1  0
 10 11  1  0
 11 12  1  0
 11 18  1  0
 12 13  2  0
 14 13  1  6
 13 17  1  0
 15 14  1  6
 16 14  1  6
 17 18  2  0
 17 22  1  0
 18 19  1  0
 19 20  2  0
 20 21  1  0
 21 22  2  0
 22 23  1  0
 23 24  1  0
 23 26  1  0
 24 25  2  0
 25 27  1  0
 26 27  2  0
 27 28  1  0
 28 29  1  0
 28 31  2  0
 29 30  2  0
 30 32  1  0
 31 32  1  0
 33 32  1  6
M  END
$$$$
