
     RDKit          3D

 33 37  0  0  0  0  0  0  0  0999 V2000
   26.3174   21.4507    8.2592 O   0  0  0  0  0  0  0  0  0  0  0  0
   26.9622   20.4351    7.9092 C   0  0  0  0  0  0  0  0  0  0  0  0
   26.3389   19.3982    7.1718 N   0  0  0  0  0  0  0  0  0  0  0  0
   28.3661   20.3404    8.2751 C   0  0  0  0  0  0  0  0  0  0  0  0
   29.2242   19.4394    7.6548 C   0  0  0  0  0  0  0  0  0  0  0  0
   30.5434   19.3214    7.9697 C   0  0  0  0  0  0  0  0  0  0  0  0
   31.3722   18.3113    7.2305 C   0  0  0  0  0  0  0  0  0  0  0  0
   28.9270   21.1336    9.2531 C   0  0  0  0  0  0  0  0  0  0  0  0
   30.2612   21.0288    9.5860 C   0  0  0  0  0  0  0  0  0  0  0  0
   31.0936   20.1258    8.9553 C   0  0  0  0  0  0  0  0  0  0  0  0
   32.4764   20.0096    9.2929 N   0  0  0  0  0  0  0  0  0  0  0  0
   33.5237   20.4060    8.6187 N   0  0  0  0  0  0  0  0  0  0  0  0
   34.6958   20.1161    9.2721 C   0  0  0  0  0  0  0  0  0  0  0  0
   36.0490   20.4342    8.7619 C   0  0  1  0  0  0  0  0  0  0  0  0
   36.6891   19.3927    7.9233 C   0  0  0  0  0  0  0  0  0  0  0  0
   36.3217   21.8556    8.4146 C   0  0  0  0  0  0  0  0  0  0  0  0
   34.2735   19.4951   10.4301 C   0  0  0  0  0  0  0  0  0  0  0  0
   32.8871   19.4278   10.4440 C   0  0  0  0  0  0  0  0  0  0  0  0
   32.2208   18.8708   11.4611 N   0  0  0  0  0  0  0  0  0  0  0  0
   32.8284   18.3418   12.5315 C   0  0  0  0  0  0  0  0  0  0  0  0
   34.1886   18.3943   12.5450 C   0  0  0  0  0  0  0  0  0  0  0  0
   34.9383   18.9724   11.4942 C   0  0  0  0  0  0  0  0  0  0  0  0
   36.3366   18.9826   11.6128 N   0  0  0  0  0  0  0  0  0  0  0  0
   37.0311   18.1031   12.3185 C   0  0  0  0  0  0  0  0  0  0  0  0
   38.3267   18.4415   12.2747 N   0  0  0  0  0  0  0  0  0  0  0  0
   37.1849   19.8601   11.1328 C   0  0  0  0  0  0  0  0  0  0  0  0
   38.4688   19.5527   11.5315 C   0  0  0  0  0  0  0  0  0  0  0  0
   39.7223   20.2401   11.2417 C   0  0  0  0  0  0  0  0  0  0  0  0
   39.8602   21.3460   10.4285 C   0  0  0  0  0  0  0  0  0  0  0  0
   41.1370   21.7128   10.3862 N   0  0  0  0  0  0  0  0  0  0  0  0
   40.9894   19.9587   11.6891 C   0  0  0  0  0  0  0  0  0  0  0  0
   41.8104   20.8729   11.1475 N   0  0  0  0  0  0  0  0  0  0  0  0
   43.2356   20.9403   11.3597 C   0  0  0  0  0  0  0  0  0  0  0  0
  1  2  2  0
  2  3  1  0
  2  4  1  0
  4  5  2  0
  4  8  1  0
  5  6  1  0
  6  7  1  0
  6 10  2  0
  8  9  2  0
  9 10  1  0
 10 11  1  0
 11 12  1  0
 11 18  1  0
 12 13  2  0
 13 14  1  0
 13 17  1  0
 14 15  1  6
 14 16  1  0
 17 18  2  0
 17 22  1  0
 18 19  1  0
 19 20  2  0
 20 21  1  0
 21 22  2  0
 22 23  1  0
 23 24  1  0
 23 26  1  0
 24 25  2  0
 25 27  1  0
 26 27  2  0
 27 28  1  0
 28 29  1  0
 28 31  2  0
 29 30  2  0
 30 32  1  0
 31 32  1  0
 32 33  1  0
M  END
$$$$
