
     RDKit          3D

 33 37  0  0  0  0  0  0  0  0999 V2000
   27.2524   19.5076    5.8648 O   0  0  0  0  0  0  0  0  0  0  0  0
   27.6195   20.1114    6.9037 C   0  0  0  0  0  0  0  0  0  0  0  0
   26.6536   20.9483    7.5288 N   0  0  0  0  0  0  0  0  0  0  0  0
   28.9648   19.9483    7.4215 C   0  0  0  0  0  0  0  0  0  0  0  0
   29.2692   20.4509    8.6674 C   0  0  0  0  0  0  0  0  0  0  0  0
   30.5119   20.3312    9.2104 C   0  0  0  0  0  0  0  0  0  0  0  0
   30.8050   20.8851   10.5565 C   0  0  0  0  0  0  0  0  0  0  0  0
   29.9550   19.3011    6.6996 C   0  0  0  0  0  0  0  0  0  0  0  0
   31.2152   19.1784    7.2474 C   0  0  0  0  0  0  0  0  0  0  0  0
   31.5080   19.6892    8.5032 C   0  0  0  0  0  0  0  0  0  0  0  0
   32.8217   19.5408    9.0315 N   0  0  0  0  0  0  0  0  0  0  0  0
   33.1723   18.8209   10.0644 N   0  0  0  0  0  0  0  0  0  0  0  0
   34.4981   18.9198   10.2717 C   0  0  0  0  0  0  0  0  0  0  0  0
   35.2584   18.2577   11.3432 C   0  0  1  0  0  0  0  0  0  0  0  0
   36.7573   18.5610   11.1866 C   0  0  0  0  0  0  0  0  0  0  0  0
   34.8812   18.9079   12.6979 C   0  0  0  0  0  0  0  0  0  0  0  0
   34.9870   19.7545    9.3012 C   0  0  0  0  0  0  0  0  0  0  0  0
   33.9055   20.1541    8.5027 C   0  0  0  0  0  0  0  0  0  0  0  0
   34.0782   20.9771    7.4665 N   0  0  0  0  0  0  0  0  0  0  0  0
   35.2754   21.4728    7.1192 C   0  0  0  0  0  0  0  0  0  0  0  0
   36.3513   21.1112    7.8659 C   0  0  0  0  0  0  0  0  0  0  0  0
   36.2230   20.2543    8.9579 C   0  0  0  0  0  0  0  0  0  0  0  0
   37.3739   19.8999    9.7065 N   0  0  0  0  0  0  0  0  0  0  0  0
   37.4822   18.8257   10.4983 C   0  0  0  0  0  0  0  0  0  0  0  0
   38.7355   18.8000   11.0308 N   0  0  0  0  0  0  0  0  0  0  0  0
   38.5392   20.5441    9.7368 C   0  0  0  0  0  0  0  0  0  0  0  0
   39.4091   19.8696   10.5633 C   0  0  0  0  0  0  0  0  0  0  0  0
   40.7884   20.1691   10.9214 C   0  0  0  0  0  0  0  0  0  0  0  0
   41.5641   19.5501   11.8964 C   0  0  0  0  0  0  0  0  0  0  0  0
   42.7672   20.1416   11.8843 N   0  0  0  0  0  0  0  0  0  0  0  0
   41.6262   21.1251   10.3785 C   0  0  0  0  0  0  0  0  0  0  0  0
   42.8254   21.0864   10.9836 N   0  0  0  0  0  0  0  0  0  0  0  0
   43.9640   21.9308   10.6925 C   0  0  0  0  0  0  0  0  0  0  0  0
  1  2  2  0
  2  3  1  0
  2  4  1  0
  4  5  2  0
  4  8  1  0
  5  6  1  0
  7  6  1  6
  6 10  2  0
  8  9  2  0
  9 10  1  0
 10 11  1  0
 11 12  1  0
 11 18  1  0
 12 13  2  0
 14 13  1  6
 13 17  1  0
 15 14  1  6
 16 14  1  6
 17 18  2  0
 17 22  1  0
 18 19  1  0
 19 20  2  0
 20 21  1  0
 21 22  2  0
 22 23  1  0
 23 24  1  0
 23 26  1  0
 24 25  2  0
 25 27  1  0
 26 27  2  0
 27 28  1  0
 28 29  1  0
 28 31  2  0
 29 30  2  0
 30 32  1  0
 31 32  1  0
 33 32  1  6
M  END
$$$$
