
     RDKit          3D

 33 37  0  0  0  0  0  0  0  0999 V2000
   26.7248   20.4284    7.9362 O   0  0  0  0  0  0  0  0  0  0  0  0
   27.3536   19.3706    7.7012 C   0  0  0  0  0  0  0  0  0  0  0  0
   26.6926   18.2366    7.1675 N   0  0  0  0  0  0  0  0  0  0  0  0
   28.7784   19.3284    7.9873 C   0  0  0  0  0  0  0  0  0  0  0  0
   29.3576   20.1581    8.9407 C   0  0  0  0  0  0  0  0  0  0  0  0
   30.6865   20.1479    9.2363 C   0  0  0  0  0  0  0  0  0  0  0  0
   31.1975   21.0912   10.2863 C   0  0  0  0  0  0  0  0  0  0  0  0
   29.6351   18.4684    7.3343 C   0  0  0  0  0  0  0  0  0  0  0  0
   30.9842   18.4433    7.6198 C   0  0  0  0  0  0  0  0  0  0  0  0
   31.5360   19.2776    8.5714 C   0  0  0  0  0  0  0  0  0  0  0  0
   32.9316   19.2592    8.8743 N   0  0  0  0  0  0  0  0  0  0  0  0
   33.9380   19.6529    8.1391 N   0  0  0  0  0  0  0  0  0  0  0  0
   35.1408   19.4763    8.7769 C   0  0  0  0  0  0  0  0  0  0  0  0
   36.4612   19.8207    8.2018 C   0  0  1  0  0  0  0  0  0  0  0  0
   36.9803   18.8960    7.1658 C   0  0  0  0  0  0  0  0  0  0  0  0
   36.7715   21.2679    8.0450 C   0  0  0  0  0  0  0  0  0  0  0  0
   34.7831   18.9296    9.9926 C   0  0  0  0  0  0  0  0  0  0  0  0
   33.4031   18.7933   10.0545 C   0  0  0  0  0  0  0  0  0  0  0  0
   32.7946   18.2867   11.1324 N   0  0  0  0  0  0  0  0  0  0  0  0
   33.4577   17.8768   12.2219 C   0  0  0  0  0  0  0  0  0  0  0  0
   34.8132   17.9993   12.1894 C   0  0  0  0  0  0  0  0  0  0  0  0
   35.5028   18.5285   11.0737 C   0  0  0  0  0  0  0  0  0  0  0  0
   36.9013   18.6192   11.1479 N   0  0  0  0  0  0  0  0  0  0  0  0
   37.7039   17.5901   11.3730 C   0  0  0  0  0  0  0  0  0  0  0  0
   38.9651   18.0354   11.4497 N   0  0  0  0  0  0  0  0  0  0  0  0
   37.6488   19.6948   11.0842 C   0  0  0  0  0  0  0  0  0  0  0  0
   38.9754   19.3679   11.2719 C   0  0  0  0  0  0  0  0  0  0  0  0
   40.1527   20.2290   11.2838 C   0  0  0  0  0  0  0  0  0  0  0  0
   41.4165   19.8527   11.6896 C   0  0  0  0  0  0  0  0  0  0  0  0
   42.2487   20.8823   11.5708 N   0  0  0  0  0  0  0  0  0  0  0  0
   40.2681   21.5456   10.9126 C   0  0  0  0  0  0  0  0  0  0  0  0
   41.5499   21.8976   11.1025 N   0  0  0  0  0  0  0  0  0  0  0  0
   42.1023   23.2032   10.8356 C   0  0  0  0  0  0  0  0  0  0  0  0
  1  2  2  0
  2  3  1  0
  2  4  1  0
  4  5  2  0
  4  8  1  0
  5  6  1  0
  6  7  1  0
  6 10  2  0
  8  9  2  0
  9 10  1  0
 10 11  1  0
 11 12  1  0
 11 18  1  0
 12 13  2  0
 13 14  1  0
 13 17  1  0
 14 15  1  6
 14 16  1  0
 17 18  2  0
 17 22  1  0
 18 19  1  0
 19 20  2  0
 20 21  1  0
 21 22  2  0
 22 23  1  0
 23 24  1  0
 23 26  1  0
 24 25  2  0
 25 27  1  0
 26 27  2  0
 27 28  1  0
 28 29  1  0
 28 31  2  0
 29 30  2  0
 30 32  1  0
 31 32  1  0
 32 33  1  0
M  END
$$$$
