
     RDKit          3D

 33 37  0  0  0  0  0  0  0  0999 V2000
   26.8941   19.1062    6.2179 O   0  0  0  0  0  0  0  0  0  0  0  0
   27.3407   19.7607    7.1930 C   0  0  0  0  0  0  0  0  0  0  0  0
   26.4086   20.5763    7.8931 N   0  0  0  0  0  0  0  0  0  0  0  0
   28.7394   19.6738    7.5678 C   0  0  0  0  0  0  0  0  0  0  0  0
   29.1834   20.3737    8.6680 C   0  0  0  0  0  0  0  0  0  0  0  0
   30.4828   20.3347    9.0724 C   0  0  0  0  0  0  0  0  0  0  0  0
   30.9270   21.1019   10.2636 C   0  0  0  0  0  0  0  0  0  0  0  0
   29.6443   18.9067    6.8514 C   0  0  0  0  0  0  0  0  0  0  0  0
   30.9617   18.8653    7.2590 C   0  0  0  0  0  0  0  0  0  0  0  0
   31.3953   19.5751    8.3689 C   0  0  0  0  0  0  0  0  0  0  0  0
   32.7637   19.5047    8.7553 N   0  0  0  0  0  0  0  0  0  0  0  0
   33.7915   19.9403    8.0758 N   0  0  0  0  0  0  0  0  0  0  0  0
   34.9304   19.7032    8.7518 C   0  0  0  0  0  0  0  0  0  0  0  0
   36.2897   20.0450    8.3045 C   0  0  1  0  0  0  0  0  0  0  0  0
   36.5297   19.4945    6.8893 C   0  0  0  0  0  0  0  0  0  0  0  0
   36.3870   21.5817    8.1331 C   0  0  0  0  0  0  0  0  0  0  0  0
   34.5727   19.0825    9.9199 C   0  0  0  0  0  0  0  0  0  0  0  0
   33.1761   18.9551    9.9208 C   0  0  0  0  0  0  0  0  0  0  0  0
   32.5348   18.3832   10.9419 N   0  0  0  0  0  0  0  0  0  0  0  0
   33.1664   17.8979   12.0213 C   0  0  0  0  0  0  0  0  0  0  0  0
   34.5206   18.0008   12.0621 C   0  0  0  0  0  0  0  0  0  0  0  0
   35.2363   18.5895   11.0209 C   0  0  0  0  0  0  0  0  0  0  0  0
   36.6486   18.6797   11.1077 N   0  0  0  0  0  0  0  0  0  0  0  0
   37.4699   17.6753   11.4387 C   0  0  0  0  0  0  0  0  0  0  0  0
   38.7538   18.1276   11.3929 N   0  0  0  0  0  0  0  0  0  0  0  0
   37.3997   19.7504   10.8564 C   0  0  0  0  0  0  0  0  0  0  0  0
   38.7260   19.4252   11.0298 C   0  0  0  0  0  0  0  0  0  0  0  0
   39.9218   20.2420   10.8771 C   0  0  0  0  0  0  0  0  0  0  0  0
   41.2161   19.9335   11.2834 C   0  0  0  0  0  0  0  0  0  0  0  0
   41.9984   20.9679   10.9437 N   0  0  0  0  0  0  0  0  0  0  0  0
   40.0370   21.4929   10.3004 C   0  0  0  0  0  0  0  0  0  0  0  0
   41.3128   21.9114   10.3546 N   0  0  0  0  0  0  0  0  0  0  0  0
   41.8283   23.1680    9.8551 C   0  0  0  0  0  0  0  0  0  0  0  0
  1  2  2  0
  2  3  1  0
  2  4  1  0
  4  5  2  0
  4  8  1  0
  5  6  1  0
  7  6  1  6
  6 10  2  0
  8  9  2  0
  9 10  1  0
 10 11  1  0
 11 12  1  0
 11 18  1  0
 12 13  2  0
 14 13  1  6
 13 17  1  0
 15 14  1  6
 16 14  1  6
 17 18  2  0
 17 22  1  0
 18 19  1  0
 19 20  2  0
 20 21  1  0
 21 22  2  0
 22 23  1  0
 23 24  1  0
 23 26  1  0
 24 25  2  0
 25 27  1  0
 26 27  2  0
 27 28  1  0
 28 29  1  0
 28 31  2  0
 29 30  2  0
 30 32  1  0
 31 32  1  0
 33 32  1  6
M  END
$$$$
