
     RDKit          3D

 33 37  0  0  0  0  0  0  0  0999 V2000
   26.6009   19.2863    9.1305 O   0  0  0  0  0  0  0  0  0  0  0  0
   27.2512   19.9068    8.2577 C   0  0  0  0  0  0  0  0  0  0  0  0
   26.6005   20.4727    7.1335 N   0  0  0  0  0  0  0  0  0  0  0  0
   28.6901   20.0356    8.4208 C   0  0  0  0  0  0  0  0  0  0  0  0
   29.4180   19.1548    9.2128 C   0  0  0  0  0  0  0  0  0  0  0  0
   30.7649   19.2429    9.3898 C   0  0  0  0  0  0  0  0  0  0  0  0
   31.4427   18.2330   10.2697 C   0  0  0  0  0  0  0  0  0  0  0  0
   29.4144   21.0329    7.8036 C   0  0  0  0  0  0  0  0  0  0  0  0
   30.7793   21.1385    7.9708 C   0  0  0  0  0  0  0  0  0  0  0  0
   31.4802   20.2511    8.7628 C   0  0  0  0  0  0  0  0  0  0  0  0
   32.8934   20.3520    8.9423 N   0  0  0  0  0  0  0  0  0  0  0  0
   33.5627   20.7565    9.9896 N   0  0  0  0  0  0  0  0  0  0  0  0
   34.9190   20.7125    9.7816 C   0  0  0  0  0  0  0  0  0  0  0  0
   35.9403   21.1119   10.7766 C   0  0  1  0  0  0  0  0  0  0  0  0
   36.4174   20.0412   11.6842 C   0  0  0  0  0  0  0  0  0  0  0  0
   36.9290   22.1404   10.3523 C   0  0  0  0  0  0  0  0  0  0  0  0
   35.0313   20.2364    8.4910 C   0  0  0  0  0  0  0  0  0  0  0  0
   33.7664   20.0111    7.9656 C   0  0  0  0  0  0  0  0  0  0  0  0
   33.5940   19.5450    6.7238 N   0  0  0  0  0  0  0  0  0  0  0  0
   34.6124   19.2624    5.9005 C   0  0  0  0  0  0  0  0  0  0  0  0
   35.8651   19.4734    6.3899 C   0  0  0  0  0  0  0  0  0  0  0  0
   36.0993   19.9646    7.6954 C   0  0  0  0  0  0  0  0  0  0  0  0
   37.4308   20.1373    8.1036 N   0  0  0  0  0  0  0  0  0  0  0  0
   38.3332   20.8326    7.4281 C   0  0  0  0  0  0  0  0  0  0  0  0
   39.5115   20.7373    8.0584 N   0  0  0  0  0  0  0  0  0  0  0  0
   38.0350   19.6135    9.1431 C   0  0  0  0  0  0  0  0  0  0  0  0
   39.3668   19.9712    9.1535 C   0  0  0  0  0  0  0  0  0  0  0  0
   40.4151   19.6257   10.1072 C   0  0  0  0  0  0  0  0  0  0  0  0
   41.7128   19.2871    9.7835 C   0  0  0  0  0  0  0  0  0  0  0  0
   42.3980   19.0324   10.8936 N   0  0  0  0  0  0  0  0  0  0  0  0
   40.3545   19.5612   11.4772 C   0  0  0  0  0  0  0  0  0  0  0  0
   41.5735   19.1995   11.9088 N   0  0  0  0  0  0  0  0  0  0  0  0
   41.9458   19.0150   13.2902 C   0  0  0  0  0  0  0  0  0  0  0  0
  1  2  2  0
  2  3  1  0
  2  4  1  0
  4  5  2  0
  4  8  1  0
  5  6  1  0
  6  7  1  0
  6 10  2  0
  8  9  2  0
  9 10  1  0
 10 11  1  0
 11 12  1  0
 11 18  1  0
 12 13  2  0
 13 14  1  0
 13 17  1  0
 14 15  1  6
 14 16  1  0
 17 18  2  0
 17 22  1  0
 18 19  1  0
 19 20  2  0
 20 21  1  0
 21 22  2  0
 22 23  1  0
 23 24  1  0
 23 26  1  0
 24 25  2  0
 25 27  1  0
 26 27  2  0
 27 28  1  0
 28 29  1  0
 28 31  2  0
 29 30  2  0
 30 32  1  0
 31 32  1  0
 32 33  1  0
M  END
$$$$
