
     RDKit          3D

 33 37  0  0  0  0  0  0  0  0999 V2000
   26.2735   18.6063    7.6811 O   0  0  0  0  0  0  0  0  0  0  0  0
   27.0036   19.5675    7.3456 C   0  0  0  0  0  0  0  0  0  0  0  0
   26.4717   20.6665    6.6266 N   0  0  0  0  0  0  0  0  0  0  0  0
   28.4109   19.5340    7.7091 C   0  0  0  0  0  0  0  0  0  0  0  0
   29.1933   20.6833    7.7107 C   0  0  0  0  0  0  0  0  0  0  0  0
   30.5131   20.6919    8.0447 C   0  0  0  0  0  0  0  0  0  0  0  0
   31.2557   21.9960    8.0096 C   0  0  0  0  0  0  0  0  0  0  0  0
   29.0499   18.3677    8.0717 C   0  0  0  0  0  0  0  0  0  0  0  0
   30.3860   18.3563    8.4132 C   0  0  0  0  0  0  0  0  0  0  0  0
   31.1423   19.5113    8.4072 C   0  0  0  0  0  0  0  0  0  0  0  0
   32.5263   19.5100    8.7592 N   0  0  0  0  0  0  0  0  0  0  0  0
   33.5653   19.7761    8.0121 N   0  0  0  0  0  0  0  0  0  0  0  0
   34.7421   19.6694    8.7109 C   0  0  0  0  0  0  0  0  0  0  0  0
   36.0884   19.9037    8.1404 C   0  0  1  0  0  0  0  0  0  0  0  0
   36.6553   18.7952    7.3356 C   0  0  0  0  0  0  0  0  0  0  0  0
   36.4065   21.2931    7.7117 C   0  0  0  0  0  0  0  0  0  0  0  0
   34.3321   19.3079    9.9783 C   0  0  0  0  0  0  0  0  0  0  0  0
   32.9479   19.2078   10.0095 C   0  0  0  0  0  0  0  0  0  0  0  0
   32.2928   18.8710   11.1258 N   0  0  0  0  0  0  0  0  0  0  0  0
   32.9101   18.6077   12.2853 C   0  0  0  0  0  0  0  0  0  0  0  0
   34.2684   18.6988   12.2841 C   0  0  0  0  0  0  0  0  0  0  0  0
   35.0064   19.0510   11.1301 C   0  0  0  0  0  0  0  0  0  0  0  0
   36.4035   19.1250   11.2407 N   0  0  0  0  0  0  0  0  0  0  0  0
   37.1332   18.3320   12.0105 C   0  0  0  0  0  0  0  0  0  0  0  0
   38.4144   18.7161   11.9337 N   0  0  0  0  0  0  0  0  0  0  0  0
   37.2159   19.9940   10.6885 C   0  0  0  0  0  0  0  0  0  0  0  0
   38.5116   19.7694   11.1040 C   0  0  0  0  0  0  0  0  0  0  0  0
   39.7367   20.4799   10.7546 C   0  0  0  0  0  0  0  0  0  0  0  0
   39.8497   21.4509    9.7810 C   0  0  0  0  0  0  0  0  0  0  0  0
   41.1047   21.8857    9.7277 N   0  0  0  0  0  0  0  0  0  0  0  0
   40.9954   20.3521   11.2873 C   0  0  0  0  0  0  0  0  0  0  0  0
   41.7882   21.2195   10.6374 N   0  0  0  0  0  0  0  0  0  0  0  0
   43.1960   21.4085   10.8882 C   0  0  0  0  0  0  0  0  0  0  0  0
  1  2  2  0
  2  3  1  0
  2  4  1  0
  4  5  2  0
  4  8  1  0
  5  6  1  0
  6  7  1  0
  6 10  2  0
  8  9  2  0
  9 10  1  0
 10 11  1  0
 11 12  1  0
 11 18  1  0
 12 13  2  0
 13 14  1  0
 13 17  1  0
 14 15  1  6
 14 16  1  0
 17 18  2  0
 17 22  1  0
 18 19  1  0
 19 20  2  0
 20 21  1  0
 21 22  2  0
 22 23  1  0
 23 24  1  0
 23 26  1  0
 24 25  2  0
 25 27  1  0
 26 27  2  0
 27 28  1  0
 28 29  1  0
 28 31  2  0
 29 30  2  0
 30 32  1  0
 31 32  1  0
 32 33  1  0
M  END
$$$$
