
     RDKit          3D

 33 37  0  0  0  0  0  0  0  0999 V2000
   26.8140   19.2759    8.6411 O   0  0  0  0  0  0  0  0  0  0  0  0
   27.5738   19.2767    7.6450 C   0  0  0  0  0  0  0  0  0  0  0  0
   27.0625   19.0561    6.3421 N   0  0  0  0  0  0  0  0  0  0  0  0
   28.9940   19.5089    7.8517 C   0  0  0  0  0  0  0  0  0  0  0  0
   29.6100   19.2367    9.0679 C   0  0  0  0  0  0  0  0  0  0  0  0
   30.9359   19.4406    9.2996 C   0  0  0  0  0  0  0  0  0  0  0  0
   31.4889   19.1090   10.6552 C   0  0  0  0  0  0  0  0  0  0  0  0
   29.8099   20.0098    6.8600 C   0  0  0  0  0  0  0  0  0  0  0  0
   31.1553   20.2232    7.0755 C   0  0  0  0  0  0  0  0  0  0  0  0
   31.7441   19.9450    8.2929 C   0  0  0  0  0  0  0  0  0  0  0  0
   33.1362   20.1625    8.5260 N   0  0  0  0  0  0  0  0  0  0  0  0
   34.1629   19.5227    8.0309 N   0  0  0  0  0  0  0  0  0  0  0  0
   35.3537   20.0248    8.4940 C   0  0  0  0  0  0  0  0  0  0  0  0
   36.6908   19.5093    8.1209 C   0  0  1  0  0  0  0  0  0  0  0  0
   37.1198   18.2632    8.7998 C   0  0  0  0  0  0  0  0  0  0  0  0
   37.1166   19.7000    6.7074 C   0  0  0  0  0  0  0  0  0  0  0  0
   34.9661   21.0495    9.3334 C   0  0  0  0  0  0  0  0  0  0  0  0
   33.5809   21.1363    9.3544 C   0  0  0  0  0  0  0  0  0  0  0  0
   32.9453   22.0525   10.0929 N   0  0  0  0  0  0  0  0  0  0  0  0
   33.5845   22.9462   10.8592 C   0  0  0  0  0  0  0  0  0  0  0  0
   34.9445   22.8849   10.8576 C   0  0  0  0  0  0  0  0  0  0  0  0
   35.6624   21.9350   10.0942 C   0  0  0  0  0  0  0  0  0  0  0  0
   37.0640   21.9646   10.1577 N   0  0  0  0  0  0  0  0  0  0  0  0
   37.8209   22.8393    9.5128 C   0  0  0  0  0  0  0  0  0  0  0  0
   39.1082   22.5438    9.7371 N   0  0  0  0  0  0  0  0  0  0  0  0
   37.8656   21.1324   10.7781 C   0  0  0  0  0  0  0  0  0  0  0  0
   39.1818   21.4656   10.5366 C   0  0  0  0  0  0  0  0  0  0  0  0
   40.4047   20.8291   11.0133 C   0  0  0  0  0  0  0  0  0  0  0  0
   40.4645   19.7503   11.8713 C   0  0  0  0  0  0  0  0  0  0  0  0
   41.7343   19.4285   12.0962 N   0  0  0  0  0  0  0  0  0  0  0  0
   41.7116   21.1414   10.7319 C   0  0  0  0  0  0  0  0  0  0  0  0
   42.4790   20.2704   11.4068 N   0  0  0  0  0  0  0  0  0  0  0  0
   43.9212   20.2459   11.3904 C   0  0  0  0  0  0  0  0  0  0  0  0
  1  2  2  0
  2  3  1  0
  2  4  1  0
  4  5  2  0
  4  8  1  0
  5  6  1  0
  6  7  1  0
  6 10  2  0
  8  9  2  0
  9 10  1  0
 10 11  1  0
 11 12  1  0
 11 18  1  0
 12 13  2  0
 13 14  1  0
 13 17  1  0
 14 15  1  6
 14 16  1  0
 17 18  2  0
 17 22  1  0
 18 19  1  0
 19 20  2  0
 20 21  1  0
 21 22  2  0
 22 23  1  0
 23 24  1  0
 23 26  1  0
 24 25  2  0
 25 27  1  0
 26 27  2  0
 27 28  1  0
 28 29  1  0
 28 31  2  0
 29 30  2  0
 30 32  1  0
 31 32  1  0
 32 33  1  0
M  END
$$$$
