
     RDKit          3D

 33 37  0  0  0  0  0  0  0  0999 V2000
   26.4278   19.1296    7.0038 O   0  0  0  0  0  0  0  0  0  0  0  0
   27.0229   20.0623    7.5917 C   0  0  0  0  0  0  0  0  0  0  0  0
   26.3314   21.2397    7.9701 N   0  0  0  0  0  0  0  0  0  0  0  0
   28.4402   19.9133    7.8790 C   0  0  0  0  0  0  0  0  0  0  0  0
   29.2404   21.0047    8.1976 C   0  0  0  0  0  0  0  0  0  0  0  0
   30.5701   20.9052    8.4725 C   0  0  0  0  0  0  0  0  0  0  0  0
   31.3319   22.1556    8.8039 C   0  0  0  0  0  0  0  0  0  0  0  0
   29.0717   18.6883    7.8529 C   0  0  0  0  0  0  0  0  0  0  0  0
   30.4176   18.5674    8.1285 C   0  0  0  0  0  0  0  0  0  0  0  0
   31.1916   19.6667    8.4424 C   0  0  0  0  0  0  0  0  0  0  0  0
   32.5859   19.5520    8.7293 N   0  0  0  0  0  0  0  0  0  0  0  0
   33.6086   19.8629    7.9771 N   0  0  0  0  0  0  0  0  0  0  0  0
   34.8036   19.6084    8.6032 C   0  0  0  0  0  0  0  0  0  0  0  0
   36.1380   19.8497    8.0083 C   0  0  1  0  0  0  0  0  0  0  0  0
   36.6533   18.7853    7.1143 C   0  0  0  0  0  0  0  0  0  0  0  0
   36.4779   21.2571    7.6634 C   0  0  0  0  0  0  0  0  0  0  0  0
   34.4229   19.1044    9.8304 C   0  0  0  0  0  0  0  0  0  0  0  0
   33.0376   19.0684    9.9102 C   0  0  0  0  0  0  0  0  0  0  0  0
   32.4079   18.6205   11.0018 N   0  0  0  0  0  0  0  0  0  0  0  0
   33.0536   18.1780   12.0890 C   0  0  0  0  0  0  0  0  0  0  0  0
   34.4138   18.2023   12.0391 C   0  0  0  0  0  0  0  0  0  0  0  0
   35.1255   18.6663   10.9083 C   0  0  0  0  0  0  0  0  0  0  0  0
   36.5277   18.6572   10.9651 N   0  0  0  0  0  0  0  0  0  0  0  0
   37.2540   17.5951   11.2791 C   0  0  0  0  0  0  0  0  0  0  0  0
   38.5459   17.9488   11.3065 N   0  0  0  0  0  0  0  0  0  0  0  0
   37.3529   19.6627   10.7976 C   0  0  0  0  0  0  0  0  0  0  0  0
   38.6536   19.2547   11.0063 C   0  0  0  0  0  0  0  0  0  0  0  0
   39.8922   20.0216   10.9313 C   0  0  0  0  0  0  0  0  0  0  0  0
   41.1345   19.5786   11.3360 C   0  0  0  0  0  0  0  0  0  0  0  0
   42.0382   20.5305   11.1259 N   0  0  0  0  0  0  0  0  0  0  0  0
   40.0961   21.2963   10.4642 C   0  0  0  0  0  0  0  0  0  0  0  0
   41.4053   21.5613   10.6010 N   0  0  0  0  0  0  0  0  0  0  0  0
   42.0469   22.7987   10.2294 C   0  0  0  0  0  0  0  0  0  0  0  0
  1  2  2  0
  2  3  1  0
  2  4  1  0
  4  5  2  0
  4  8  1  0
  5  6  1  0
  6  7  1  0
  6 10  2  0
  8  9  2  0
  9 10  1  0
 10 11  1  0
 11 12  1  0
 11 18  1  0
 12 13  2  0
 13 14  1  0
 13 17  1  0
 14 15  1  6
 14 16  1  0
 17 18  2  0
 17 22  1  0
 18 19  1  0
 19 20  2  0
 20 21  1  0
 21 22  2  0
 22 23  1  0
 23 24  1  0
 23 26  1  0
 24 25  2  0
 25 27  1  0
 26 27  2  0
 27 28  1  0
 28 29  1  0
 28 31  2  0
 29 30  2  0
 30 32  1  0
 31 32  1  0
 32 33  1  0
M  END
$$$$
