
     RDKit          3D

 33 37  0  0  0  0  0  0  0  0999 V2000
   26.5789   18.7851    6.6571 O   0  0  0  0  0  0  0  0  0  0  0  0
   27.1087   19.6808    7.3611 C   0  0  0  0  0  0  0  0  0  0  0  0
   26.2780   20.7753    7.7303 N   0  0  0  0  0  0  0  0  0  0  0  0
   28.4985   19.5832    7.7650 C   0  0  0  0  0  0  0  0  0  0  0  0
   28.9133   20.2379    8.9038 C   0  0  0  0  0  0  0  0  0  0  0  0
   30.2029   20.1865    9.3371 C   0  0  0  0  0  0  0  0  0  0  0  0
   30.6154   20.9047   10.5695 C   0  0  0  0  0  0  0  0  0  0  0  0
   29.4236   18.8500    7.0389 C   0  0  0  0  0  0  0  0  0  0  0  0
   30.7311   18.7962    7.4757 C   0  0  0  0  0  0  0  0  0  0  0  0
   31.1352   19.4604    8.6243 C   0  0  0  0  0  0  0  0  0  0  0  0
   32.4944   19.3786    9.0399 N   0  0  0  0  0  0  0  0  0  0  0  0
   33.5340   19.8636    8.4138 N   0  0  0  0  0  0  0  0  0  0  0  0
   34.6584   19.5958    9.1025 C   0  0  0  0  0  0  0  0  0  0  0  0
   36.0246   19.9760    8.7108 C   0  0  1  0  0  0  0  0  0  0  0  0
   36.3628   19.3739    7.3374 C   0  0  0  0  0  0  0  0  0  0  0  0
   36.0680   21.5063    8.4731 C   0  0  0  0  0  0  0  0  0  0  0  0
   34.2786   18.9024   10.2217 C   0  0  0  0  0  0  0  0  0  0  0  0
   32.8838   18.7630   10.1800 C   0  0  0  0  0  0  0  0  0  0  0  0
   32.2236   18.1247   11.1483 N   0  0  0  0  0  0  0  0  0  0  0  0
   32.8336   17.5804   12.2120 C   0  0  0  0  0  0  0  0  0  0  0  0
   34.1852   17.6924   12.2927 C   0  0  0  0  0  0  0  0  0  0  0  0
   34.9200   18.3494   11.3072 C   0  0  0  0  0  0  0  0  0  0  0  0
   36.3289   18.4465   11.4346 N   0  0  0  0  0  0  0  0  0  0  0  0
   37.1293   17.4938   11.9292 C   0  0  0  0  0  0  0  0  0  0  0  0
   38.4175   17.9321   11.8715 N   0  0  0  0  0  0  0  0  0  0  0  0
   37.0973   19.4713   11.0697 C   0  0  0  0  0  0  0  0  0  0  0  0
   38.4135   19.1687   11.3357 C   0  0  0  0  0  0  0  0  0  0  0  0
   39.6206   19.9539   11.1195 C   0  0  0  0  0  0  0  0  0  0  0  0
   40.9025   19.6833   11.5876 C   0  0  0  0  0  0  0  0  0  0  0  0
   41.7026   20.6669   11.1518 N   0  0  0  0  0  0  0  0  0  0  0  0
   39.7612   21.1310   10.4086 C   0  0  0  0  0  0  0  0  0  0  0  0
   41.0397   21.5431   10.4446 N   0  0  0  0  0  0  0  0  0  0  0  0
   41.5788   22.7315    9.8190 C   0  0  0  0  0  0  0  0  0  0  0  0
  1  2  2  0
  2  3  1  0
  2  4  1  0
  4  5  2  0
  4  8  1  0
  5  6  1  0
  7  6  1  6
  6 10  2  0
  8  9  2  0
  9 10  1  0
 10 11  1  0
 11 12  1  0
 11 18  1  0
 12 13  2  0
 14 13  1  6
 13 17  1  0
 15 14  1  6
 16 14  1  6
 17 18  2  0
 17 22  1  0
 18 19  1  0
 19 20  2  0
 20 21  1  0
 21 22  2  0
 22 23  1  0
 23 24  1  0
 23 26  1  0
 24 25  2  0
 25 27  1  0
 26 27  2  0
 27 28  1  0
 28 29  1  0
 28 31  2  0
 29 30  2  0
 30 32  1  0
 31 32  1  0
 33 32  1  6
M  END
$$$$
