
     RDKit          3D

 33 37  0  0  0  0  0  0  0  0999 V2000
   26.4911   19.6287    8.4362 O   0  0  0  0  0  0  0  0  0  0  0  0
   27.3588   18.8549    7.9599 C   0  0  0  0  0  0  0  0  0  0  0  0
   26.8869   17.8102    7.1173 N   0  0  0  0  0  0  0  0  0  0  0  0
   28.7649   19.0364    8.2672 C   0  0  0  0  0  0  0  0  0  0  0  0
   29.1361   20.0290    9.1472 C   0  0  0  0  0  0  0  0  0  0  0  0
   30.4380   20.2513    9.4776 C   0  0  0  0  0  0  0  0  0  0  0  0
   30.8024   21.3305   10.4302 C   0  0  0  0  0  0  0  0  0  0  0  0
   29.7480   18.2403    7.7013 C   0  0  0  0  0  0  0  0  0  0  0  0
   31.0681   18.4634    8.0343 C   0  0  0  0  0  0  0  0  0  0  0  0
   31.4279   19.4664    8.9220 C   0  0  0  0  0  0  0  0  0  0  0  0
   32.8020   19.6629    9.2384 N   0  0  0  0  0  0  0  0  0  0  0  0
   33.3785   19.4417   10.3903 N   0  0  0  0  0  0  0  0  0  0  0  0
   34.6886   19.7400   10.3196 C   0  0  0  0  0  0  0  0  0  0  0  0
   35.6627   19.6259   11.4162 C   0  0  1  0  0  0  0  0  0  0  0  0
   35.2239   20.5026   12.6003 C   0  0  0  0  0  0  0  0  0  0  0  0
   35.6157   18.1826   11.9773 C   0  0  0  0  0  0  0  0  0  0  0  0
   34.9256   20.1709    9.0406 C   0  0  0  0  0  0  0  0  0  0  0  0
   33.7089   20.1208    8.3449 C   0  0  0  0  0  0  0  0  0  0  0  0
   33.6296   20.4851    7.0636 N   0  0  0  0  0  0  0  0  0  0  0  0
   34.6872   20.9173    6.3604 C   0  0  0  0  0  0  0  0  0  0  0  0
   35.8866   20.9814    6.9956 C   0  0  0  0  0  0  0  0  0  0  0  0
   36.0211   20.6121    8.3330 C   0  0  0  0  0  0  0  0  0  0  0  0
   37.2931   20.6907    8.9546 N   0  0  0  0  0  0  0  0  0  0  0  0
   38.1198   21.7424    8.8968 C   0  0  0  0  0  0  0  0  0  0  0  0
   39.2324   21.4645    9.6315 N   0  0  0  0  0  0  0  0  0  0  0  0
   37.8724   19.7619    9.7133 C   0  0  0  0  0  0  0  0  0  0  0  0
   39.0922   20.2280   10.1490 C   0  0  0  0  0  0  0  0  0  0  0  0
   40.0933   19.5932   10.9946 C   0  0  0  0  0  0  0  0  0  0  0  0
   41.3924   20.0263   11.2406 C   0  0  0  0  0  0  0  0  0  0  0  0
   41.9570   19.1413   12.0745 N   0  0  0  0  0  0  0  0  0  0  0  0
   39.9781   18.4311   11.7341 C   0  0  0  0  0  0  0  0  0  0  0  0
   41.1280   18.1793   12.3821 N   0  0  0  0  0  0  0  0  0  0  0  0
   41.3963   17.0562   13.2544 C   0  0  0  0  0  0  0  0  0  0  0  0
  1  2  2  0
  2  3  1  0
  2  4  1  0
  4  5  2  0
  4  8  1  0
  5  6  1  0
  7  6  1  6
  6 10  2  0
  8  9  2  0
  9 10  1  0
 10 11  1  0
 11 12  1  0
 11 18  1  0
 12 13  2  0
 14 13  1  6
 13 17  1  0
 15 14  1  6
 16 14  1  6
 17 18  2  0
 17 22  1  0
 18 19  1  0
 19 20  2  0
 20 21  1  0
 21 22  2  0
 22 23  1  0
 23 24  1  0
 23 26  1  0
 24 25  2  0
 25 27  1  0
 26 27  2  0
 27 28  1  0
 28 29  1  0
 28 31  2  0
 29 30  2  0
 30 32  1  0
 31 32  1  0
 33 32  1  6
M  END
$$$$
