
     RDKit          3D

 33 37  0  0  0  0  0  0  0  0999 V2000
   26.6514   20.4518    8.9686 O   0  0  0  0  0  0  0  0  0  0  0  0
   27.3874   19.6219    8.3784 C   0  0  0  0  0  0  0  0  0  0  0  0
   26.7336   18.6630    7.5554 N   0  0  0  0  0  0  0  0  0  0  0  0
   28.8282   19.6584    8.5427 C   0  0  0  0  0  0  0  0  0  0  0  0
   29.6063   18.7678    7.8364 C   0  0  0  0  0  0  0  0  0  0  0  0
   30.9633   18.7499    7.9455 C   0  0  0  0  0  0  0  0  0  0  0  0
   31.7712   17.7757    7.1690 C   0  0  0  0  0  0  0  0  0  0  0  0
   29.4471   20.5637    9.3901 C   0  0  0  0  0  0  0  0  0  0  0  0
   30.8220   20.5479    9.5025 C   0  0  0  0  0  0  0  0  0  0  0  0
   31.5934   19.6455    8.7854 C   0  0  0  0  0  0  0  0  0  0  0  0
   33.0095   19.6631    8.9308 N   0  0  0  0  0  0  0  0  0  0  0  0
   33.6987   19.1840    9.9326 N   0  0  0  0  0  0  0  0  0  0  0  0
   35.0142   19.3786    9.7275 C   0  0  0  0  0  0  0  0  0  0  0  0
   36.1001   18.9810   10.6369 C   0  0  1  0  0  0  0  0  0  0  0  0
   35.9330   19.6863   11.9926 C   0  0  0  0  0  0  0  0  0  0  0  0
   35.9444   17.4766   10.9725 C   0  0  0  0  0  0  0  0  0  0  0  0
   35.1340   20.0180    8.5215 C   0  0  0  0  0  0  0  0  0  0  0  0
   33.8413   20.2009    8.0092 C   0  0  0  0  0  0  0  0  0  0  0  0
   33.6418   20.8022    6.8347 N   0  0  0  0  0  0  0  0  0  0  0  0
   34.6433   21.2667    6.0725 C   0  0  0  0  0  0  0  0  0  0  0  0
   35.9128   21.1102    6.5308 C   0  0  0  0  0  0  0  0  0  0  0  0
   36.1734   20.4890    7.7512 C   0  0  0  0  0  0  0  0  0  0  0  0
   37.5143   20.3431    8.1882 N   0  0  0  0  0  0  0  0  0  0  0  0
   38.5702   20.1341    7.3918 C   0  0  0  0  0  0  0  0  0  0  0  0
   39.6922   20.0711    8.1612 N   0  0  0  0  0  0  0  0  0  0  0  0
   37.9601   20.4114    9.4414 C   0  0  0  0  0  0  0  0  0  0  0  0
   39.3263   20.2430    9.4468 C   0  0  0  0  0  0  0  0  0  0  0  0
   40.2680   20.2360   10.5575 C   0  0  0  0  0  0  0  0  0  0  0  0
   41.6413   20.0206   10.5024 C   0  0  0  0  0  0  0  0  0  0  0  0
   42.1090   20.1032   11.7562 N   0  0  0  0  0  0  0  0  0  0  0  0
   40.0107   20.4396   11.9002 C   0  0  0  0  0  0  0  0  0  0  0  0
   41.1499   20.3531   12.6076 N   0  0  0  0  0  0  0  0  0  0  0  0
   41.2874   20.5077   14.0399 C   0  0  0  0  0  0  0  0  0  0  0  0
  1  2  2  0
  2  3  1  0
  2  4  1  0
  4  5  2  0
  4  8  1  0
  5  6  1  0
  7  6  1  6
  6 10  2  0
  8  9  2  0
  9 10  1  0
 10 11  1  0
 11 12  1  0
 11 18  1  0
 12 13  2  0
 14 13  1  6
 13 17  1  0
 15 14  1  6
 16 14  1  6
 17 18  2  0
 17 22  1  0
 18 19  1  0
 19 20  2  0
 20 21  1  0
 21 22  2  0
 22 23  1  0
 23 24  1  0
 23 26  1  0
 24 25  2  0
 25 27  1  0
 26 27  2  0
 27 28  1  0
 28 29  1  0
 28 31  2  0
 29 30  2  0
 30 32  1  0
 31 32  1  0
 33 32  1  6
M  END
$$$$
