
     RDKit          3D

 33 37  0  0  0  0  0  0  0  0999 V2000
   27.1963   19.5907    7.1561 O   0  0  0  0  0  0  0  0  0  0  0  0
   27.7287   19.4029    8.2786 C   0  0  0  0  0  0  0  0  0  0  0  0
   26.8579   19.0423    9.3443 N   0  0  0  0  0  0  0  0  0  0  0  0
   29.1608   19.5520    8.4556 C   0  0  0  0  0  0  0  0  0  0  0  0
   29.9296   19.9588    7.3875 C   0  0  0  0  0  0  0  0  0  0  0  0
   31.2780   20.1179    7.4875 C   0  0  0  0  0  0  0  0  0  0  0  0
   32.0761   20.5581    6.3152 C   0  0  0  0  0  0  0  0  0  0  0  0
   29.7802   19.2972    9.6688 C   0  0  0  0  0  0  0  0  0  0  0  0
   31.1465   19.4576    9.7730 C   0  0  0  0  0  0  0  0  0  0  0  0
   31.9087   19.8679    8.6893 C   0  0  0  0  0  0  0  0  0  0  0  0
   33.3161   20.0210    8.8398 N   0  0  0  0  0  0  0  0  0  0  0  0
   34.1843   19.0742    9.0804 N   0  0  0  0  0  0  0  0  0  0  0  0
   35.4246   19.5896    9.1592 C   0  0  0  0  0  0  0  0  0  0  0  0
   36.6600   18.8358    9.4236 C   0  0  1  0  0  0  0  0  0  0  0  0
   36.3808   17.7086   10.4310 C   0  0  0  0  0  0  0  0  0  0  0  0
   37.0769   18.0914    8.1304 C   0  0  0  0  0  0  0  0  0  0  0  0
   35.3039   20.9389    8.9529 C   0  0  0  0  0  0  0  0  0  0  0  0
   33.9445   21.2156    8.7473 C   0  0  0  0  0  0  0  0  0  0  0  0
   33.5191   22.4595    8.5182 N   0  0  0  0  0  0  0  0  0  0  0  0
   34.3443   23.5160    8.4684 C   0  0  0  0  0  0  0  0  0  0  0  0
   35.6705   23.2933    8.6620 C   0  0  0  0  0  0  0  0  0  0  0  0
   36.1644   22.0126    8.9047 C   0  0  0  0  0  0  0  0  0  0  0  0
   37.5568   21.8258    9.0965 N   0  0  0  0  0  0  0  0  0  0  0  0
   38.5096   22.1374    8.2089 C   0  0  0  0  0  0  0  0  0  0  0  0
   39.7241   21.8413    8.7494 N   0  0  0  0  0  0  0  0  0  0  0  0
   38.1578   21.3404   10.1814 C   0  0  0  0  0  0  0  0  0  0  0  0
   39.5201   21.3415    9.9843 C   0  0  0  0  0  0  0  0  0  0  0  0
   40.5975   20.9125   10.8649 C   0  0  0  0  0  0  0  0  0  0  0  0
   41.9624   20.9120   10.5956 C   0  0  0  0  0  0  0  0  0  0  0  0
   42.5840   20.4369   11.6844 N   0  0  0  0  0  0  0  0  0  0  0  0
   40.5060   20.4153   12.1514 C   0  0  0  0  0  0  0  0  0  0  0  0
   41.7311   20.1339   12.6266 N   0  0  0  0  0  0  0  0  0  0  0  0
   42.0449   19.5972   13.9334 C   0  0  0  0  0  0  0  0  0  0  0  0
  1  2  2  0
  2  3  1  0
  2  4  1  0
  4  5  2  0
  4  8  1  0
  5  6  1  0
  7  6  1  6
  6 10  2  0
  8  9  2  0
  9 10  1  0
 10 11  1  0
 11 12  1  0
 11 18  1  0
 12 13  2  0
 14 13  1  6
 13 17  1  0
 15 14  1  6
 16 14  1  6
 17 18  2  0
 17 22  1  0
 18 19  1  0
 19 20  2  0
 20 21  1  0
 21 22  2  0
 22 23  1  0
 23 24  1  0
 23 26  1  0
 24 25  2  0
 25 27  1  0
 26 27  2  0
 27 28  1  0
 28 29  1  0
 28 31  2  0
 29 30  2  0
 30 32  1  0
 31 32  1  0
 33 32  1  6
M  END
$$$$
