
     RDKit          3D

 33 37  0  0  0  0  0  0  0  0999 V2000
   26.7540   19.1688    6.2741 O   0  0  0  0  0  0  0  0  0  0  0  0
   27.2122   20.0202    7.0765 C   0  0  0  0  0  0  0  0  0  0  0  0
   26.3428   21.0865    7.4389 N   0  0  0  0  0  0  0  0  0  0  0  0
   28.5622   19.9019    7.5943 C   0  0  0  0  0  0  0  0  0  0  0  0
   29.4351   19.0204    6.9955 C   0  0  0  0  0  0  0  0  0  0  0  0
   30.7146   18.8622    7.4327 C   0  0  0  0  0  0  0  0  0  0  0  0
   31.6288   17.9025    6.7632 C   0  0  0  0  0  0  0  0  0  0  0  0
   29.0013   20.6500    8.6751 C   0  0  0  0  0  0  0  0  0  0  0  0
   30.2975   20.4916    9.1202 C   0  0  0  0  0  0  0  0  0  0  0  0
   31.1659   19.6003    8.5078 C   0  0  0  0  0  0  0  0  0  0  0  0
   32.4956   19.4676    8.9990 N   0  0  0  0  0  0  0  0  0  0  0  0
   33.5870   19.9057    8.4291 N   0  0  0  0  0  0  0  0  0  0  0  0
   34.6598   19.5987    9.1810 C   0  0  0  0  0  0  0  0  0  0  0  0
   36.0599   19.9209    8.8639 C   0  0  1  0  0  0  0  0  0  0  0  0
   36.4357   19.3329    7.4942 C   0  0  0  0  0  0  0  0  0  0  0  0
   36.1868   21.4521    8.6650 C   0  0  0  0  0  0  0  0  0  0  0  0
   34.1909   18.9298   10.2811 C   0  0  0  0  0  0  0  0  0  0  0  0
   32.7960   18.8459   10.1626 C   0  0  0  0  0  0  0  0  0  0  0  0
   32.0579   18.2422   11.0961 N   0  0  0  0  0  0  0  0  0  0  0  0
   32.5855   17.6823   12.1951 C   0  0  0  0  0  0  0  0  0  0  0  0
   33.9340   17.7408   12.3505 C   0  0  0  0  0  0  0  0  0  0  0  0
   34.7483   18.3602   11.4038 C   0  0  0  0  0  0  0  0  0  0  0  0
   36.1506   18.4019   11.6091 N   0  0  0  0  0  0  0  0  0  0  0  0
   36.8215   17.6872   12.5211 C   0  0  0  0  0  0  0  0  0  0  0  0
   38.1489   17.9698   12.4077 N   0  0  0  0  0  0  0  0  0  0  0  0
   37.0383   19.1254   10.9291 C   0  0  0  0  0  0  0  0  0  0  0  0
   38.3004   18.8688   11.4151 C   0  0  0  0  0  0  0  0  0  0  0  0
   39.5913   19.4059   11.0084 C   0  0  0  0  0  0  0  0  0  0  0  0
   40.8405   19.1039   11.5412 C   0  0  0  0  0  0  0  0  0  0  0  0
   41.7472   19.8257   10.8671 N   0  0  0  0  0  0  0  0  0  0  0  0
   39.8613   20.3260   10.0128 C   0  0  0  0  0  0  0  0  0  0  0  0
   41.1824   20.5635    9.9485 N   0  0  0  0  0  0  0  0  0  0  0  0
   41.8512   21.4650    9.0352 C   0  0  0  0  0  0  0  0  0  0  0  0
  1  2  2  0
  2  3  1  0
  2  4  1  0
  4  5  2  0
  4  8  1  0
  5  6  1  0
  7  6  1  6
  6 10  2  0
  8  9  2  0
  9 10  1  0
 10 11  1  0
 11 12  1  0
 11 18  1  0
 12 13  2  0
 14 13  1  6
 13 17  1  0
 15 14  1  6
 16 14  1  6
 17 18  2  0
 17 22  1  0
 18 19  1  0
 19 20  2  0
 20 21  1  0
 21 22  2  0
 22 23  1  0
 23 24  1  0
 23 26  1  0
 24 25  2  0
 25 27  1  0
 26 27  2  0
 27 28  1  0
 28 29  1  0
 28 31  2  0
 29 30  2  0
 30 32  1  0
 31 32  1  0
 33 32  1  6
M  END
$$$$
