
     RDKit          3D

 33 37  0  0  0  0  0  0  0  0999 V2000
   26.2563   19.3610    8.4332 O   0  0  0  0  0  0  0  0  0  0  0  0
   26.9771   20.3664    8.6529 C   0  0  0  0  0  0  0  0  0  0  0  0
   26.3056   21.6126    8.7949 N   0  0  0  0  0  0  0  0  0  0  0  0
   28.4187   20.2393    8.7528 C   0  0  0  0  0  0  0  0  0  0  0  0
   28.9946   18.9977    8.5971 C   0  0  0  0  0  0  0  0  0  0  0  0
   30.3407   18.8107    8.6791 C   0  0  0  0  0  0  0  0  0  0  0  0
   30.9277   17.4578    8.5060 C   0  0  0  0  0  0  0  0  0  0  0  0
   29.2358   21.3309    9.0005 C   0  0  0  0  0  0  0  0  0  0  0  0
   30.6002   21.1443    9.0840 C   0  0  0  0  0  0  0  0  0  0  0  0
   31.1668   19.8884    8.9252 C   0  0  0  0  0  0  0  0  0  0  0  0
   32.5797   19.7398    9.0191 N   0  0  0  0  0  0  0  0  0  0  0  0
   33.4636   20.0851    8.1205 N   0  0  0  0  0  0  0  0  0  0  0  0
   34.7042   19.7944    8.5527 C   0  0  0  0  0  0  0  0  0  0  0  0
   35.9552   20.0315    7.8158 C   0  0  1  0  0  0  0  0  0  0  0  0
   36.0452   19.0760    6.6149 C   0  0  0  0  0  0  0  0  0  0  0  0
   35.8969   21.4402    7.1737 C   0  0  0  0  0  0  0  0  0  0  0  0
   34.5668   19.2357    9.7964 C   0  0  0  0  0  0  0  0  0  0  0  0
   33.1971   19.2010   10.0957 C   0  0  0  0  0  0  0  0  0  0  0  0
   32.7547   18.7051   11.2529 N   0  0  0  0  0  0  0  0  0  0  0  0
   33.5715   18.2132   12.1966 C   0  0  0  0  0  0  0  0  0  0  0  0
   34.9072   18.2276   11.9481 C   0  0  0  0  0  0  0  0  0  0  0  0
   35.4188   18.7348   10.7548 C   0  0  0  0  0  0  0  0  0  0  0  0
   36.8203   18.7341   10.5397 N   0  0  0  0  0  0  0  0  0  0  0  0
   37.4946   17.8203    9.8303 C   0  0  0  0  0  0  0  0  0  0  0  0
   38.8136   18.1595    9.8223 N   0  0  0  0  0  0  0  0  0  0  0  0
   37.6977   19.6371   10.9740 C   0  0  0  0  0  0  0  0  0  0  0  0
   38.9564   19.2948   10.5343 C   0  0  0  0  0  0  0  0  0  0  0  0
   40.2368   19.9565   10.7423 C   0  0  0  0  0  0  0  0  0  0  0  0
   41.4824   19.5602   10.2660 C   0  0  0  0  0  0  0  0  0  0  0  0
   42.3789   20.4595   10.6962 N   0  0  0  0  0  0  0  0  0  0  0  0
   40.4980   21.1136   11.4519 C   0  0  0  0  0  0  0  0  0  0  0  0
   41.8108   21.3969   11.4074 N   0  0  0  0  0  0  0  0  0  0  0  0
   42.4692   22.5258   12.0291 C   0  0  0  0  0  0  0  0  0  0  0  0
  1  2  2  0
  2  3  1  0
  2  4  1  0
  4  5  2  0
  4  8  1  0
  5  6  1  0
  7  6  1  6
  6 10  2  0
  8  9  2  0
  9 10  1  0
 10 11  1  0
 11 12  1  0
 11 18  1  0
 12 13  2  0
 14 13  1  6
 13 17  1  0
 15 14  1  6
 16 14  1  6
 17 18  2  0
 17 22  1  0
 18 19  1  0
 19 20  2  0
 20 21  1  0
 21 22  2  0
 22 23  1  0
 23 24  1  0
 23 26  1  0
 24 25  2  0
 25 27  1  0
 26 27  2  0
 27 28  1  0
 28 29  1  0
 28 31  2  0
 29 30  2  0
 30 32  1  0
 31 32  1  0
 33 32  1  6
M  END
$$$$
