
     RDKit          3D

 33 37  0  0  0  0  0  0  0  0999 V2000
   26.5330   18.6725    7.3367 O   0  0  0  0  0  0  0  0  0  0  0  0
   27.0888   19.5831    8.0003 C   0  0  0  0  0  0  0  0  0  0  0  0
   26.2462   20.6204    8.4884 N   0  0  0  0  0  0  0  0  0  0  0  0
   28.5186   19.5577    8.2440 C   0  0  0  0  0  0  0  0  0  0  0  0
   29.0522   20.4023    9.1923 C   0  0  0  0  0  0  0  0  0  0  0  0
   30.3851   20.4275    9.4686 C   0  0  0  0  0  0  0  0  0  0  0  0
   30.9263   21.3512   10.4976 C   0  0  0  0  0  0  0  0  0  0  0  0
   29.3657   18.7078    7.5506 C   0  0  0  0  0  0  0  0  0  0  0  0
   30.7168   18.7313    7.8286 C   0  0  0  0  0  0  0  0  0  0  0  0
   31.2408   19.5870    8.7862 C   0  0  0  0  0  0  0  0  0  0  0  0
   32.6413   19.5792    9.0421 N   0  0  0  0  0  0  0  0  0  0  0  0
   33.5863   19.9780    8.2323 N   0  0  0  0  0  0  0  0  0  0  0  0
   34.7910   19.8236    8.8115 C   0  0  0  0  0  0  0  0  0  0  0  0
   36.0907   20.1558    8.2076 C   0  0  1  0  0  0  0  0  0  0  0  0
   36.2294   19.4574    6.8451 C   0  0  0  0  0  0  0  0  0  0  0  0
   36.1088   21.6657    7.8613 C   0  0  0  0  0  0  0  0  0  0  0  0
   34.5646   19.2964   10.0559 C   0  0  0  0  0  0  0  0  0  0  0  0
   33.1788   19.1393   10.2032 C   0  0  0  0  0  0  0  0  0  0  0  0
   32.6548   18.6421   11.3253 N   0  0  0  0  0  0  0  0  0  0  0  0
   33.4004   18.2636   12.3743 C   0  0  0  0  0  0  0  0  0  0  0  0
   34.7486   18.3989   12.2746 C   0  0  0  0  0  0  0  0  0  0  0  0
   35.3442   18.9128   11.1239 C   0  0  0  0  0  0  0  0  0  0  0  0
   36.7551   19.0406   11.0653 N   0  0  0  0  0  0  0  0  0  0  0  0
   37.6178   18.0309   10.8946 C   0  0  0  0  0  0  0  0  0  0  0  0
   38.8820   18.5367   10.8648 N   0  0  0  0  0  0  0  0  0  0  0  0
   37.4611   20.1673   11.1423 C   0  0  0  0  0  0  0  0  0  0  0  0
   38.8001   19.8731   11.0187 C   0  0  0  0  0  0  0  0  0  0  0  0
   39.9611   20.7518   11.0373 C   0  0  0  0  0  0  0  0  0  0  0  0
   39.9799   22.1341   10.8809 C   0  0  0  0  0  0  0  0  0  0  0  0
   41.2585   22.5282   10.9671 N   0  0  0  0  0  0  0  0  0  0  0  0
   41.2896   20.4127   11.2126 C   0  0  0  0  0  0  0  0  0  0  0  0
   42.0581   21.5140   11.1654 N   0  0  0  0  0  0  0  0  0  0  0  0
   43.4973   21.5659   11.3074 C   0  0  0  0  0  0  0  0  0  0  0  0
  1  2  2  0
  2  3  1  0
  2  4  1  0
  4  5  2  0
  4  8  1  0
  5  6  1  0
  7  6  1  6
  6 10  2  0
  8  9  2  0
  9 10  1  0
 10 11  1  0
 11 12  1  0
 11 18  1  0
 12 13  2  0
 14 13  1  6
 13 17  1  0
 15 14  1  6
 16 14  1  6
 17 18  2  0
 17 22  1  0
 18 19  1  0
 19 20  2  0
 20 21  1  0
 21 22  2  0
 22 23  1  0
 23 24  1  0
 23 26  1  0
 24 25  2  0
 25 27  1  0
 26 27  2  0
 27 28  1  0
 28 29  1  0
 28 31  2  0
 29 30  2  0
 30 32  1  0
 31 32  1  0
 33 32  1  6
M  END
$$$$
