
     RDKit          3D

 33 37  0  0  0  0  0  0  0  0999 V2000
   26.3783   21.4144    8.1686 O   0  0  0  0  0  0  0  0  0  0  0  0
   27.0405   20.4725    7.6748 C   0  0  0  0  0  0  0  0  0  0  0  0
   26.4563   19.5907    6.7321 N   0  0  0  0  0  0  0  0  0  0  0  0
   28.4237   20.3009    8.0886 C   0  0  0  0  0  0  0  0  0  0  0  0
   29.2211   19.2863    7.5713 C   0  0  0  0  0  0  0  0  0  0  0  0
   30.5192   19.0938    7.9337 C   0  0  0  0  0  0  0  0  0  0  0  0
   31.2814   17.9629    7.3063 C   0  0  0  0  0  0  0  0  0  0  0  0
   29.0235   21.1289    9.0130 C   0  0  0  0  0  0  0  0  0  0  0  0
   30.3372   20.9499    9.3928 C   0  0  0  0  0  0  0  0  0  0  0  0
   31.1091   19.9344    8.8645 C   0  0  0  0  0  0  0  0  0  0  0  0
   32.4702   19.7407    9.2512 N   0  0  0  0  0  0  0  0  0  0  0  0
   32.9464   19.1740   10.3285 N   0  0  0  0  0  0  0  0  0  0  0  0
   34.3191   19.1758   10.3464 C   0  0  0  0  0  0  0  0  0  0  0  0
   35.1512   18.6124   11.4342 C   0  0  1  0  0  0  0  0  0  0  0  0
   35.3187   19.4672   12.6338 C   0  0  0  0  0  0  0  0  0  0  0  0
   35.0766   17.1412   11.6471 C   0  0  0  0  0  0  0  0  0  0  0  0
   34.6556   19.8041    9.1645 C   0  0  0  0  0  0  0  0  0  0  0  0
   33.5012   20.1577    8.4796 C   0  0  0  0  0  0  0  0  0  0  0  0
   33.5486   20.7824    7.2980 N   0  0  0  0  0  0  0  0  0  0  0  0
   34.6961   21.1115    6.6899 C   0  0  0  0  0  0  0  0  0  0  0  0
   35.8448   20.7762    7.3389 C   0  0  0  0  0  0  0  0  0  0  0  0
   35.8472   20.1154    8.5895 C   0  0  0  0  0  0  0  0  0  0  0  0
   37.0882   19.8076    9.1678 N   0  0  0  0  0  0  0  0  0  0  0  0
   37.4070   18.6202    9.6602 C   0  0  0  0  0  0  0  0  0  0  0  0
   38.6338   18.6898   10.1940 N   0  0  0  0  0  0  0  0  0  0  0  0
   38.1012   20.6105    9.3896 C   0  0  0  0  0  0  0  0  0  0  0  0
   39.1115   19.9374   10.0437 C   0  0  0  0  0  0  0  0  0  0  0  0
   40.4135   20.4203   10.4904 C   0  0  0  0  0  0  0  0  0  0  0  0
   41.3573   19.6728   11.1642 C   0  0  0  0  0  0  0  0  0  0  0  0
   42.4244   20.4239   11.4169 N   0  0  0  0  0  0  0  0  0  0  0  0
   40.9710   21.6670   10.3499 C   0  0  0  0  0  0  0  0  0  0  0  0
   42.1842   21.6229   10.9237 N   0  0  0  0  0  0  0  0  0  0  0  0
   43.1096   22.7269   10.9984 C   0  0  0  0  0  0  0  0  0  0  0  0
  1  2  2  0
  2  3  1  0
  2  4  1  0
  4  5  2  0
  4  8  1  0
  5  6  1  0
  6  7  1  0
  6 10  2  0
  8  9  2  0
  9 10  1  0
 10 11  1  0
 11 12  1  0
 11 18  1  0
 12 13  2  0
 13 14  1  0
 13 17  1  0
 14 15  1  1
 14 16  1  0
 17 18  2  0
 17 22  1  0
 18 19  1  0
 19 20  2  0
 20 21  1  0
 21 22  2  0
 22 23  1  0
 23 24  1  0
 23 26  1  0
 24 25  2  0
 25 27  1  0
 26 27  2  0
 27 28  1  0
 28 29  1  0
 28 31  2  0
 29 30  2  0
 30 32  1  0
 31 32  1  0
 32 33  1  0
M  END
$$$$
