
     RDKit          3D

 33 37  0  0  0  0  0  0  0  0999 V2000
   26.5001   20.5702    7.8359 O   0  0  0  0  0  0  0  0  0  0  0  0
   27.3612   19.7568    7.4169 C   0  0  0  0  0  0  0  0  0  0  0  0
   26.9045   18.7523    6.5187 N   0  0  0  0  0  0  0  0  0  0  0  0
   28.7450   19.8560    7.8407 C   0  0  0  0  0  0  0  0  0  0  0  0
   29.7081   19.1477    7.1565 C   0  0  0  0  0  0  0  0  0  0  0  0
   31.0237   19.1974    7.5033 C   0  0  0  0  0  0  0  0  0  0  0  0
   32.0356   18.4206    6.7433 C   0  0  0  0  0  0  0  0  0  0  0  0
   29.1283   20.6430    8.9151 C   0  0  0  0  0  0  0  0  0  0  0  0
   30.4608   20.6952    9.2687 C   0  0  0  0  0  0  0  0  0  0  0  0
   31.4203   19.9768    8.5709 C   0  0  0  0  0  0  0  0  0  0  0  0
   32.7847   20.0590    8.9691 N   0  0  0  0  0  0  0  0  0  0  0  0
   33.7366   20.7213    8.3664 N   0  0  0  0  0  0  0  0  0  0  0  0
   34.8988   20.5701    9.0273 C   0  0  0  0  0  0  0  0  0  0  0  0
   36.1926   21.1597    8.6491 C   0  0  1  0  0  0  0  0  0  0  0  0
   36.6000   20.6750    7.2483 C   0  0  0  0  0  0  0  0  0  0  0  0
   36.0142   22.6895    8.4821 C   0  0  0  0  0  0  0  0  0  0  0  0
   34.6375   19.7629   10.1033 C   0  0  0  0  0  0  0  0  0  0  0  0
   33.2747   19.4341   10.0645 C   0  0  0  0  0  0  0  0  0  0  0  0
   32.7255   18.6518   10.9958 N   0  0  0  0  0  0  0  0  0  0  0  0
   33.4229   18.1328   12.0175 C   0  0  0  0  0  0  0  0  0  0  0  0
   34.7473   18.4261   12.0940 C   0  0  0  0  0  0  0  0  0  0  0  0
   35.3676   19.2383   11.1460 C   0  0  0  0  0  0  0  0  0  0  0  0
   36.7515   19.5219   11.2676 N   0  0  0  0  0  0  0  0  0  0  0  0
   37.3315   20.1127   12.3199 C   0  0  0  0  0  0  0  0  0  0  0  0
   38.6715   20.1953   12.0909 N   0  0  0  0  0  0  0  0  0  0  0  0
   37.7082   19.2350   10.3866 C   0  0  0  0  0  0  0  0  0  0  0  0
   38.9227   19.6499   10.8844 C   0  0  0  0  0  0  0  0  0  0  0  0
   40.2555   19.5623   10.3045 C   0  0  0  0  0  0  0  0  0  0  0  0
   40.6248   18.9309    9.1211 C   0  0  0  0  0  0  0  0  0  0  0  0
   41.9469   19.0987    8.9748 N   0  0  0  0  0  0  0  0  0  0  0  0
   41.4390   20.0815   10.7950 C   0  0  0  0  0  0  0  0  0  0  0  0
   42.4533   19.7842    9.9652 N   0  0  0  0  0  0  0  0  0  0  0  0
   43.8420   20.1535   10.1367 C   0  0  0  0  0  0  0  0  0  0  0  0
  1  2  2  0
  2  3  1  0
  2  4  1  0
  4  5  2  0
  4  8  1  0
  5  6  1  0
  7  6  1  6
  6 10  2  0
  8  9  2  0
  9 10  1  0
 10 11  1  0
 11 12  1  0
 11 18  1  0
 12 13  2  0
 14 13  1  6
 13 17  1  0
 15 14  1  6
 16 14  1  6
 17 18  2  0
 17 22  1  0
 18 19  1  0
 19 20  2  0
 20 21  1  0
 21 22  2  0
 22 23  1  0
 23 24  1  0
 23 26  1  0
 24 25  2  0
 25 27  1  0
 26 27  2  0
 27 28  1  0
 28 29  1  0
 28 31  2  0
 29 30  2  0
 30 32  1  0
 31 32  1  0
 33 32  1  6
M  END
$$$$
