
     RDKit          3D

 33 37  0  0  0  0  0  0  0  0999 V2000
   26.2826   19.3784    7.1645 O   0  0  0  0  0  0  0  0  0  0  0  0
   26.8961   20.3506    7.6715 C   0  0  0  0  0  0  0  0  0  0  0  0
   26.1758   21.5729    7.7778 N   0  0  0  0  0  0  0  0  0  0  0  0
   28.2690   20.2109    8.1188 C   0  0  0  0  0  0  0  0  0  0  0  0
   28.9793   19.0861    7.7616 C   0  0  0  0  0  0  0  0  0  0  0  0
   30.2705   18.8943    8.1485 C   0  0  0  0  0  0  0  0  0  0  0  0
   31.0064   17.6693    7.7450 C   0  0  0  0  0  0  0  0  0  0  0  0
   28.8890   21.1764    8.8961 C   0  0  0  0  0  0  0  0  0  0  0  0
   30.1973   20.9846    9.2895 C   0  0  0  0  0  0  0  0  0  0  0  0
   30.9009   19.8471    8.9226 C   0  0  0  0  0  0  0  0  0  0  0  0
   32.2496   19.6886    9.3502 N   0  0  0  0  0  0  0  0  0  0  0  0
   33.3255   19.9174    8.6445 N   0  0  0  0  0  0  0  0  0  0  0  0
   34.4250   19.6584    9.3756 C   0  0  0  0  0  0  0  0  0  0  0  0
   35.8179   19.7923    8.9212 C   0  0  1  0  0  0  0  0  0  0  0  0
   36.0831   18.8286    7.7532 C   0  0  0  0  0  0  0  0  0  0  0  0
   36.0073   21.1990    8.3003 C   0  0  0  0  0  0  0  0  0  0  0  0
   33.9901   19.2449   10.6074 C   0  0  0  0  0  0  0  0  0  0  0  0
   32.5879   19.2648   10.5897 C   0  0  0  0  0  0  0  0  0  0  0  0
   31.8778   18.9087   11.6620 N   0  0  0  0  0  0  0  0  0  0  0  0
   32.4420   18.5135   12.8132 C   0  0  0  0  0  0  0  0  0  0  0  0
   33.7988   18.4796   12.8745 C   0  0  0  0  0  0  0  0  0  0  0  0
   34.5849   18.8419   11.7819 C   0  0  0  0  0  0  0  0  0  0  0  0
   35.9977   18.7958   11.8921 N   0  0  0  0  0  0  0  0  0  0  0  0
   36.6949   17.8407   12.5202 C   0  0  0  0  0  0  0  0  0  0  0  0
   38.0229   18.1167   12.3973 N   0  0  0  0  0  0  0  0  0  0  0  0
   36.8696   19.6625   11.3798 C   0  0  0  0  0  0  0  0  0  0  0  0
   38.1482   19.2544   11.6858 C   0  0  0  0  0  0  0  0  0  0  0  0
   39.4317   19.8575   11.3552 C   0  0  0  0  0  0  0  0  0  0  0  0
   40.6833   19.5137   11.8561 C   0  0  0  0  0  0  0  0  0  0  0  0
   41.5808   20.3262   11.2798 N   0  0  0  0  0  0  0  0  0  0  0  0
   39.6907   20.8951   10.4795 C   0  0  0  0  0  0  0  0  0  0  0  0
   41.0078   21.1600   10.4530 N   0  0  0  0  0  0  0  0  0  0  0  0
   41.6655   22.1758    9.6594 C   0  0  0  0  0  0  0  0  0  0  0  0
  1  2  2  0
  2  3  1  0
  2  4  1  0
  4  5  2  0
  4  8  1  0
  5  6  1  0
  7  6  1  6
  6 10  2  0
  8  9  2  0
  9 10  1  0
 10 11  1  0
 11 12  1  0
 11 18  1  0
 12 13  2  0
 14 13  1  6
 13 17  1  0
 15 14  1  6
 16 14  1  6
 17 18  2  0
 17 22  1  0
 18 19  1  0
 19 20  2  0
 20 21  1  0
 21 22  2  0
 22 23  1  0
 23 24  1  0
 23 26  1  0
 24 25  2  0
 25 27  1  0
 26 27  2  0
 27 28  1  0
 28 29  1  0
 28 31  2  0
 29 30  2  0
 30 32  1  0
 31 32  1  0
 33 32  1  6
M  END
$$$$
