
     RDKit          3D

 33 37  0  0  0  0  0  0  0  0999 V2000
   27.5532   18.0762    6.5761 O   0  0  0  0  0  0  0  0  0  0  0  0
   27.8114   19.0027    7.3790 C   0  0  0  0  0  0  0  0  0  0  0  0
   26.7868   19.8593    7.8523 N   0  0  0  0  0  0  0  0  0  0  0  0
   29.1859   19.1826    7.8172 C   0  0  0  0  0  0  0  0  0  0  0  0
   29.5037   19.9529    8.9300 C   0  0  0  0  0  0  0  0  0  0  0  0
   30.7775   20.1446    9.3708 C   0  0  0  0  0  0  0  0  0  0  0  0
   30.9977   20.9982   10.5859 C   0  0  0  0  0  0  0  0  0  0  0  0
   30.2499   18.6036    7.1593 C   0  0  0  0  0  0  0  0  0  0  0  0
   31.5471   18.7861    7.5905 C   0  0  0  0  0  0  0  0  0  0  0  0
   31.8375   19.5561    8.6991 C   0  0  0  0  0  0  0  0  0  0  0  0
   33.1772   19.7512    9.1535 N   0  0  0  0  0  0  0  0  0  0  0  0
   33.7933   19.1925   10.1619 N   0  0  0  0  0  0  0  0  0  0  0  0
   35.0863   19.6371   10.2847 C   0  0  0  0  0  0  0  0  0  0  0  0
   36.0364   19.1953   11.3311 C   0  0  1  0  0  0  0  0  0  0  0  0
   36.2846   20.1569   12.4318 C   0  0  0  0  0  0  0  0  0  0  0  0
   36.0352   17.7471   11.6748 C   0  0  0  0  0  0  0  0  0  0  0  0
   35.2179   20.5353    9.2451 C   0  0  0  0  0  0  0  0  0  0  0  0
   34.0257   20.6076    8.5379 C   0  0  0  0  0  0  0  0  0  0  0  0
   33.8861   21.4085    7.4759 N   0  0  0  0  0  0  0  0  0  0  0  0
   34.8703   22.1926    7.0164 C   0  0  0  0  0  0  0  0  0  0  0  0
   36.0519   22.1417    7.6908 C   0  0  0  0  0  0  0  0  0  0  0  0
   36.2490   21.3115    8.8188 C   0  0  0  0  0  0  0  0  0  0  0  0
   37.5098   21.3284    9.4349 N   0  0  0  0  0  0  0  0  0  0  0  0
   38.1898   22.4308    9.7107 C   0  0  0  0  0  0  0  0  0  0  0  0
   39.3757   22.0873   10.2308 N   0  0  0  0  0  0  0  0  0  0  0  0
   38.2588   20.3078    9.7775 C   0  0  0  0  0  0  0  0  0  0  0  0
   39.4610   20.7471   10.2910 C   0  0  0  0  0  0  0  0  0  0  0  0
   40.5935   19.9782   10.7951 C   0  0  0  0  0  0  0  0  0  0  0  0
   40.6029   18.6162   11.0146 C   0  0  0  0  0  0  0  0  0  0  0  0
   41.7937   18.2464   11.4751 N   0  0  0  0  0  0  0  0  0  0  0  0
   41.8471   20.4113   11.1492 C   0  0  0  0  0  0  0  0  0  0  0  0
   42.5371   19.3326   11.5533 N   0  0  0  0  0  0  0  0  0  0  0  0
   43.9044   19.3439   12.0128 C   0  0  0  0  0  0  0  0  0  0  0  0
  1  2  2  0
  2  3  1  0
  2  4  1  0
  4  5  2  0
  4  8  1  0
  5  6  1  0
  6  7  1  0
  6 10  2  0
  8  9  2  0
  9 10  1  0
 10 11  1  0
 11 12  1  0
 11 18  1  0
 12 13  2  0
 13 14  1  0
 13 17  1  0
 14 15  1  1
 14 16  1  0
 17 18  2  0
 17 22  1  0
 18 19  1  0
 19 20  2  0
 20 21  1  0
 21 22  2  0
 22 23  1  0
 23 24  1  0
 23 26  1  0
 24 25  2  0
 25 27  1  0
 26 27  2  0
 27 28  1  0
 28 29  1  0
 28 31  2  0
 29 30  2  0
 30 32  1  0
 31 32  1  0
 32 33  1  0
M  END
$$$$
