
     RDKit          3D

 33 37  0  0  0  0  0  0  0  0999 V2000
   38.0497   14.0358    8.3216 O   0  0  0  0  0  0  0  0  0  0  0  0
   36.9145   14.4379    7.9633 C   0  0  0  0  0  0  0  0  0  0  0  0
   36.2083   13.6143    7.0429 N   0  0  0  0  0  0  0  0  0  0  0  0
   36.3715   15.6820    8.4750 C   0  0  0  0  0  0  0  0  0  0  0  0
   35.1484   16.1187    8.0160 C   0  0  0  0  0  0  0  0  0  0  0  0
   34.5836   17.2768    8.4558 C   0  0  0  0  0  0  0  0  0  0  0  0
   33.2631   17.7175    7.9392 C   0  0  0  0  0  0  0  0  0  0  0  0
   37.0470   16.4460    9.4135 C   0  0  0  0  0  0  0  0  0  0  0  0
   36.4770   17.6200    9.8608 C   0  0  0  0  0  0  0  0  0  0  0  0
   35.2446   18.0480    9.3901 C   0  0  0  0  0  0  0  0  0  0  0  0
   34.6922   19.2659    9.8783 N   0  0  0  0  0  0  0  0  0  0  0  0
   35.0268   20.4765    9.5169 N   0  0  0  0  0  0  0  0  0  0  0  0
   34.2932   21.3821   10.1893 C   0  0  0  0  0  0  0  0  0  0  0  0
   34.3890   22.8442   10.0568 C   0  0  1  0  0  0  0  0  0  0  0  0
   35.8281   23.3031   10.3425 C   0  0  0  0  0  0  0  0  0  0  0  0
   34.1583   23.2270    8.5734 C   0  0  0  0  0  0  0  0  0  0  0  0
   33.4567   20.6767   11.0142 C   0  0  0  0  0  0  0  0  0  0  0  0
   33.7150   19.3130   10.8128 C   0  0  0  0  0  0  0  0  0  0  0  0
   33.0445   18.3757   11.4857 N   0  0  0  0  0  0  0  0  0  0  0  0
   32.0929   18.6632   12.3864 C   0  0  0  0  0  0  0  0  0  0  0  0
   31.8101   19.9728   12.6127 C   0  0  0  0  0  0  0  0  0  0  0  0
   32.4823   20.9888   11.9354 C   0  0  0  0  0  0  0  0  0  0  0  0
   32.1514   22.3420   12.1998 N   0  0  0  0  0  0  0  0  0  0  0  0
   32.1742   22.9235   13.4056 C   0  0  0  0  0  0  0  0  0  0  0  0
   31.8215   24.2316   13.2666 N   0  0  0  0  0  0  0  0  0  0  0  0
   31.7903   23.2664   11.3116 C   0  0  0  0  0  0  0  0  0  0  0  0
   31.5781   24.4613   11.9611 C   0  0  0  0  0  0  0  0  0  0  0  0
   31.1736   25.7578   11.4358 C   0  0  0  0  0  0  0  0  0  0  0  0
   30.8537   26.9025   12.1588 C   0  0  0  0  0  0  0  0  0  0  0  0
   30.5397   27.8591   11.2735 N   0  0  0  0  0  0  0  0  0  0  0  0
   31.0189   26.1369   10.1155 C   0  0  0  0  0  0  0  0  0  0  0  0
   30.6321   27.4218   10.0456 N   0  0  0  0  0  0  0  0  0  0  0  0
   30.3684   28.1768    8.8395 C   0  0  0  0  0  0  0  0  0  0  0  0
  1  2  2  0
  2  3  1  0
  2  4  1  0
  4  5  2  0
  4  8  1  0
  5  6  1  0
  7  6  1  6
  6 10  2  0
  8  9  2  0
  9 10  1  0
 10 11  1  0
 11 12  1  0
 11 18  1  0
 12 13  2  0
 14 13  1  6
 13 17  1  0
 15 14  1  6
 16 14  1  6
 17 18  2  0
 17 22  1  0
 18 19  1  0
 19 20  2  0
 20 21  1  0
 21 22  2  0
 22 23  1  0
 23 24  1  0
 23 26  1  0
 24 25  2  0
 25 27  1  0
 26 27  2  0
 27 28  1  0
 28 29  1  0
 28 31  2  0
 29 30  2  0
 30 32  1  0
 31 32  1  0
 33 32  1  6
M  END
$$$$
