
     RDKit          3D

 33 37  0  0  0  0  0  0  0  0999 V2000
   26.6720   18.8171    6.4148 O   0  0  0  0  0  0  0  0  0  0  0  0
   27.1080   19.6227    7.2748 C   0  0  0  0  0  0  0  0  0  0  0  0
   26.1700   20.5447    7.8172 N   0  0  0  0  0  0  0  0  0  0  0  0
   28.5010   19.5959    7.6788 C   0  0  0  0  0  0  0  0  0  0  0  0
   28.9185   20.4191    8.7013 C   0  0  0  0  0  0  0  0  0  0  0  0
   30.2112   20.4419    9.1279 C   0  0  0  0  0  0  0  0  0  0  0  0
   30.6264   21.3421   10.2333 C   0  0  0  0  0  0  0  0  0  0  0  0
   29.4264   18.7657    7.0664 C   0  0  0  0  0  0  0  0  0  0  0  0
   30.7370   18.7868    7.4967 C   0  0  0  0  0  0  0  0  0  0  0  0
   31.1438   19.6208    8.5276 C   0  0  0  0  0  0  0  0  0  0  0  0
   32.5061   19.6112    8.9409 N   0  0  0  0  0  0  0  0  0  0  0  0
   33.5290   20.0760    8.2733 N   0  0  0  0  0  0  0  0  0  0  0  0
   34.6630   19.8955    8.9746 C   0  0  0  0  0  0  0  0  0  0  0  0
   36.0162   20.2836    8.5471 C   0  0  1  0  0  0  0  0  0  0  0  0
   36.3602   19.6014    7.2131 C   0  0  0  0  0  0  0  0  0  0  0  0
   36.0185   21.7956    8.2094 C   0  0  0  0  0  0  0  0  0  0  0  0
   34.3073   19.2807   10.1465 C   0  0  0  0  0  0  0  0  0  0  0  0
   32.9170   19.0980   10.1234 C   0  0  0  0  0  0  0  0  0  0  0  0
   32.2789   18.5183   11.1420 N   0  0  0  0  0  0  0  0  0  0  0  0
   32.9080   18.0765   12.2414 C   0  0  0  0  0  0  0  0  0  0  0  0
   34.2560   18.2337   12.3059 C   0  0  0  0  0  0  0  0  0  0  0  0
   34.9681   18.8330   11.2682 C   0  0  0  0  0  0  0  0  0  0  0  0
   36.3739   18.9806   11.3801 N   0  0  0  0  0  0  0  0  0  0  0  0
   37.1875   18.1597   12.0560 C   0  0  0  0  0  0  0  0  0  0  0  0
   38.4679   18.6030   11.9187 N   0  0  0  0  0  0  0  0  0  0  0  0
   37.1264   19.9282   10.8237 C   0  0  0  0  0  0  0  0  0  0  0  0
   38.4458   19.7096   11.1497 C   0  0  0  0  0  0  0  0  0  0  0  0
   39.6401   20.4602   10.7883 C   0  0  0  0  0  0  0  0  0  0  0  0
   39.7434   21.4934    9.8623 C   0  0  0  0  0  0  0  0  0  0  0  0
   41.0235   21.8919    9.8500 N   0  0  0  0  0  0  0  0  0  0  0  0
   40.9242   20.3156   11.2790 C   0  0  0  0  0  0  0  0  0  0  0  0
   41.7466   21.2003   10.6903 N   0  0  0  0  0  0  0  0  0  0  0  0
   43.1634   21.3566   10.9400 C   0  0  0  0  0  0  0  0  0  0  0  0
  1  2  2  0
  2  3  1  0
  2  4  1  0
  4  5  2  0
  4  8  1  0
  5  6  1  0
  7  6  1  6
  6 10  2  0
  8  9  2  0
  9 10  1  0
 10 11  1  0
 11 12  1  0
 11 18  1  0
 12 13  2  0
 14 13  1  6
 13 17  1  0
 15 14  1  6
 16 14  1  6
 17 18  2  0
 17 22  1  0
 18 19  1  0
 19 20  2  0
 20 21  1  0
 21 22  2  0
 22 23  1  0
 23 24  1  0
 23 26  1  0
 24 25  2  0
 25 27  1  0
 26 27  2  0
 27 28  1  0
 28 29  1  0
 28 31  2  0
 29 30  2  0
 30 32  1  0
 31 32  1  0
 33 32  1  6
M  END
$$$$
