
     RDKit          3D

 33 37  0  0  0  0  0  0  0  0999 V2000
   26.2914   19.2791    6.9148 O   0  0  0  0  0  0  0  0  0  0  0  0
   26.8521   20.1536    7.6151 C   0  0  0  0  0  0  0  0  0  0  0  0
   26.1194   21.2528    8.1274 N   0  0  0  0  0  0  0  0  0  0  0  0
   28.2728   20.0189    7.8930 C   0  0  0  0  0  0  0  0  0  0  0  0
   28.9154   20.8263    8.8247 C   0  0  0  0  0  0  0  0  0  0  0  0
   30.2427   20.7302    9.1120 C   0  0  0  0  0  0  0  0  0  0  0  0
   30.8258   21.6577   10.1383 C   0  0  0  0  0  0  0  0  0  0  0  0
   29.0629   19.0881    7.2531 C   0  0  0  0  0  0  0  0  0  0  0  0
   30.4091   18.9756    7.5306 C   0  0  0  0  0  0  0  0  0  0  0  0
   31.0247   19.7894    8.4605 C   0  0  0  0  0  0  0  0  0  0  0  0
   32.4180   19.6809    8.7549 N   0  0  0  0  0  0  0  0  0  0  0  0
   33.4435   19.9687    7.9974 N   0  0  0  0  0  0  0  0  0  0  0  0
   34.6362   19.7304    8.6342 C   0  0  0  0  0  0  0  0  0  0  0  0
   35.9727   19.9527    8.0368 C   0  0  1  0  0  0  0  0  0  0  0  0
   36.4760   21.3468    8.0700 C   0  0  0  0  0  0  0  0  0  0  0  0
   36.9717   18.8605    8.1941 C   0  0  0  0  0  0  0  0  0  0  0  0
   34.2509   19.2620    9.8740 C   0  0  0  0  0  0  0  0  0  0  0  0
   32.8653   19.2304    9.9504 C   0  0  0  0  0  0  0  0  0  0  0  0
   32.2316   18.8147   11.0524 N   0  0  0  0  0  0  0  0  0  0  0  0
   32.8732   18.4023   12.1537 C   0  0  0  0  0  0  0  0  0  0  0  0
   34.2337   18.4232   12.1074 C   0  0  0  0  0  0  0  0  0  0  0  0
   34.9496   18.8538   10.9661 C   0  0  0  0  0  0  0  0  0  0  0  0
   36.3516   18.8442   11.0275 N   0  0  0  0  0  0  0  0  0  0  0  0
   37.0702   17.8343   11.4938 C   0  0  0  0  0  0  0  0  0  0  0  0
   38.3644   18.1801   11.4733 N   0  0  0  0  0  0  0  0  0  0  0  0
   37.1836   19.8098   10.7186 C   0  0  0  0  0  0  0  0  0  0  0  0
   38.4812   19.4282   10.9877 C   0  0  0  0  0  0  0  0  0  0  0  0
   39.7249   20.1684   10.8060 C   0  0  0  0  0  0  0  0  0  0  0  0
   40.9883   19.6956   11.0956 C   0  0  0  0  0  0  0  0  0  0  0  0
   41.8906   20.6290   10.8102 N   0  0  0  0  0  0  0  0  0  0  0  0
   39.9147   21.4416   10.3289 C   0  0  0  0  0  0  0  0  0  0  0  0
   41.2366   21.6769   10.3492 N   0  0  0  0  0  0  0  0  0  0  0  0
   41.8698   22.9027    9.9280 C   0  0  0  0  0  0  0  0  0  0  0  0
  1  2  2  0
  2  3  1  0
  2  4  1  0
  4  5  2  0
  4  8  1  0
  5  6  1  0
  6  7  1  0
  6 10  2  0
  8  9  2  0
  9 10  1  0
 10 11  1  0
 11 12  1  0
 11 18  1  0
 12 13  2  0
 13 14  1  0
 13 17  1  0
 14 15  1  1
 14 16  1  0
 17 18  2  0
 17 22  1  0
 18 19  1  0
 19 20  2  0
 20 21  1  0
 21 22  2  0
 22 23  1  0
 23 24  1  0
 23 26  1  0
 24 25  2  0
 25 27  1  0
 26 27  2  0
 27 28  1  0
 28 29  1  0
 28 31  2  0
 29 30  2  0
 30 32  1  0
 31 32  1  0
 32 33  1  0
M  END
$$$$
