
     RDKit          3D

 33 37  0  0  0  0  0  0  0  0999 V2000
   26.8378   20.0302    8.1127 O   0  0  0  0  0  0  0  0  0  0  0  0
   27.6728   19.5576    7.3070 C   0  0  0  0  0  0  0  0  0  0  0  0
   27.2617   19.0528    6.0486 N   0  0  0  0  0  0  0  0  0  0  0  0
   29.0755   19.5370    7.6888 C   0  0  0  0  0  0  0  0  0  0  0  0
   29.5380   20.2159    8.8104 C   0  0  0  0  0  0  0  0  0  0  0  0
   30.8426   20.2202    9.1998 C   0  0  0  0  0  0  0  0  0  0  0  0
   31.2238   20.9907   10.4305 C   0  0  0  0  0  0  0  0  0  0  0  0
   30.0250   18.8472    6.9659 C   0  0  0  0  0  0  0  0  0  0  0  0
   31.3512   18.8397    7.3443 C   0  0  0  0  0  0  0  0  0  0  0  0
   31.7863   19.5220    8.4629 C   0  0  0  0  0  0  0  0  0  0  0  0
   33.1573   19.5205    8.8631 N   0  0  0  0  0  0  0  0  0  0  0  0
   33.7380   18.8264    9.8062 N   0  0  0  0  0  0  0  0  0  0  0  0
   35.0807   19.0989    9.8926 C   0  0  0  0  0  0  0  0  0  0  0  0
   36.0088   18.4768   10.8644 C   0  0  1  0  0  0  0  0  0  0  0  0
   35.8134   18.8559   12.2842 C   0  0  0  0  0  0  0  0  0  0  0  0
   36.4451   17.0820   10.5822 C   0  0  0  0  0  0  0  0  0  0  0  0
   35.2827   20.0387    8.9022 C   0  0  0  0  0  0  0  0  0  0  0  0
   34.0816   20.3031    8.2585 C   0  0  0  0  0  0  0  0  0  0  0  0
   34.0015   21.1815    7.2532 N   0  0  0  0  0  0  0  0  0  0  0  0
   35.0577   21.8657    6.7937 C   0  0  0  0  0  0  0  0  0  0  0  0
   36.2495   21.6260    7.4063 C   0  0  0  0  0  0  0  0  0  0  0  0
   36.3856   20.7072    8.4730 C   0  0  0  0  0  0  0  0  0  0  0  0
   37.6622   20.5285    9.0276 N   0  0  0  0  0  0  0  0  0  0  0  0
   38.2630   19.3549    9.1523 C   0  0  0  0  0  0  0  0  0  0  0  0
   39.4327   19.5337    9.7806 N   0  0  0  0  0  0  0  0  0  0  0  0
   38.4444   21.4307    9.5701 C   0  0  0  0  0  0  0  0  0  0  0  0
   39.5876   20.8385   10.0643 C   0  0  0  0  0  0  0  0  0  0  0  0
   40.7282   21.4422   10.7444 C   0  0  0  0  0  0  0  0  0  0  0  0
   40.9553   22.7963   10.8799 C   0  0  0  0  0  0  0  0  0  0  0  0
   42.0842   22.9945   11.5530 N   0  0  0  0  0  0  0  0  0  0  0  0
   41.7847   20.8325   11.3742 C   0  0  0  0  0  0  0  0  0  0  0  0
   42.5775   21.8076   11.8469 N   0  0  0  0  0  0  0  0  0  0  0  0
   43.8039   21.6015   12.5780 C   0  0  0  0  0  0  0  0  0  0  0  0
  1  2  2  0
  2  3  1  0
  2  4  1  0
  4  5  2  0
  4  8  1  0
  5  6  1  0
  6  7  1  0
  6 10  2  0
  8  9  2  0
  9 10  1  0
 10 11  1  0
 11 12  1  0
 11 18  1  0
 12 13  2  0
 13 14  1  0
 13 17  1  0
 14 15  1  1
 14 16  1  0
 17 18  2  0
 17 22  1  0
 18 19  1  0
 19 20  2  0
 20 21  1  0
 21 22  2  0
 22 23  1  0
 23 24  1  0
 23 26  1  0
 24 25  2  0
 25 27  1  0
 26 27  2  0
 27 28  1  0
 28 29  1  0
 28 31  2  0
 29 30  2  0
 30 32  1  0
 31 32  1  0
 32 33  1  0
M  END
$$$$
