
     RDKit          3D

 33 37  0  0  0  0  0  0  0  0999 V2000
   26.2061   21.0973    7.9837 O   0  0  0  0  0  0  0  0  0  0  0  0
   26.9682   20.1764    7.5967 C   0  0  0  0  0  0  0  0  0  0  0  0
   26.3978   19.1965    6.7374 N   0  0  0  0  0  0  0  0  0  0  0  0
   28.3559   20.1347    8.0175 C   0  0  0  0  0  0  0  0  0  0  0  0
   29.1685   19.1259    7.5489 C   0  0  0  0  0  0  0  0  0  0  0  0
   30.4789   19.0300    7.9052 C   0  0  0  0  0  0  0  0  0  0  0  0
   31.3261   17.9290    7.3808 C   0  0  0  0  0  0  0  0  0  0  0  0
   28.8901   21.0804    8.8782 C   0  0  0  0  0  0  0  0  0  0  0  0
   30.2178   20.9856    9.2409 C   0  0  0  0  0  0  0  0  0  0  0  0
   31.0247   19.9645    8.7615 C   0  0  0  0  0  0  0  0  0  0  0  0
   32.3899   19.9036    9.1610 N   0  0  0  0  0  0  0  0  0  0  0  0
   33.4183   20.3717    8.5045 N   0  0  0  0  0  0  0  0  0  0  0  0
   34.5533   20.1332    9.1865 C   0  0  0  0  0  0  0  0  0  0  0  0
   35.9121   20.5062    8.7633 C   0  0  1  0  0  0  0  0  0  0  0  0
   36.3450   19.6410    7.5686 C   0  0  0  0  0  0  0  0  0  0  0  0
   35.8797   21.9467    8.1941 C   0  0  0  0  0  0  0  0  0  0  0  0
   34.1924   19.4769   10.3339 C   0  0  0  0  0  0  0  0  0  0  0  0
   32.7978   19.3294   10.3162 C   0  0  0  0  0  0  0  0  0  0  0  0
   32.1541   18.7217   11.3148 N   0  0  0  0  0  0  0  0  0  0  0  0
   32.7813   18.2172   12.3880 C   0  0  0  0  0  0  0  0  0  0  0  0
   34.1333   18.3384   12.4464 C   0  0  0  0  0  0  0  0  0  0  0  0
   34.8513   18.9646   11.4289 C   0  0  0  0  0  0  0  0  0  0  0  0
   36.2612   19.0727   11.5337 N   0  0  0  0  0  0  0  0  0  0  0  0
   37.0460   18.2792   12.2733 C   0  0  0  0  0  0  0  0  0  0  0  0
   38.3408   18.6670   12.1064 N   0  0  0  0  0  0  0  0  0  0  0  0
   37.0459   19.9487   10.9086 C   0  0  0  0  0  0  0  0  0  0  0  0
   38.3568   19.7113   11.2547 C   0  0  0  0  0  0  0  0  0  0  0  0
   39.5762   20.3910   10.8405 C   0  0  0  0  0  0  0  0  0  0  0  0
   39.7177   21.3358    9.8291 C   0  0  0  0  0  0  0  0  0  0  0  0
   41.0095   21.6928    9.7943 N   0  0  0  0  0  0  0  0  0  0  0  0
   40.8519   20.2510   11.3540 C   0  0  0  0  0  0  0  0  0  0  0  0
   41.7052   21.0556   10.6983 N   0  0  0  0  0  0  0  0  0  0  0  0
   43.1245   21.1901   10.9467 C   0  0  0  0  0  0  0  0  0  0  0  0
  1  2  2  0
  2  3  1  0
  2  4  1  0
  4  5  2  0
  4  8  1  0
  5  6  1  0
  7  6  1  6
  6 10  2  0
  8  9  2  0
  9 10  1  0
 10 11  1  0
 11 12  1  0
 11 18  1  0
 12 13  2  0
 14 13  1  6
 13 17  1  0
 15 14  1  6
 16 14  1  6
 17 18  2  0
 17 22  1  0
 18 19  1  0
 19 20  2  0
 20 21  1  0
 21 22  2  0
 22 23  1  0
 23 24  1  0
 23 26  1  0
 24 25  2  0
 25 27  1  0
 26 27  2  0
 27 28  1  0
 28 29  1  0
 28 31  2  0
 29 30  2  0
 30 32  1  0
 31 32  1  0
 33 32  1  6
M  END
$$$$
