
     RDKit          3D

 33 37  0  0  0  0  0  0  0  0999 V2000
   26.9432   17.8203    8.0977 O   0  0  0  0  0  0  0  0  0  0  0  0
   27.6919   18.6322    7.5061 C   0  0  0  0  0  0  0  0  0  0  0  0
   27.1982   19.4382    6.4505 N   0  0  0  0  0  0  0  0  0  0  0  0
   29.0807   18.7319    7.9244 C   0  0  0  0  0  0  0  0  0  0  0  0
   29.9514   19.6542    7.3551 C   0  0  0  0  0  0  0  0  0  0  0  0
   31.2572   19.7775    7.7198 C   0  0  0  0  0  0  0  0  0  0  0  0
   32.1017   20.8112    7.0330 C   0  0  0  0  0  0  0  0  0  0  0  0
   29.6141   17.9227    8.9046 C   0  0  0  0  0  0  0  0  0  0  0  0
   30.9344   18.0326    9.2877 C   0  0  0  0  0  0  0  0  0  0  0  0
   31.7797   18.9569    8.7071 C   0  0  0  0  0  0  0  0  0  0  0  0
   33.1483   19.0784    9.0967 N   0  0  0  0  0  0  0  0  0  0  0  0
   34.1876   18.4112    8.6689 N   0  0  0  0  0  0  0  0  0  0  0  0
   35.3465   18.8141    9.2848 C   0  0  0  0  0  0  0  0  0  0  0  0
   36.6874   18.2451    9.0184 C   0  0  1  0  0  0  0  0  0  0  0  0
   36.9876   16.9518    9.6779 C   0  0  0  0  0  0  0  0  0  0  0  0
   37.2583   18.4707    7.6624 C   0  0  0  0  0  0  0  0  0  0  0  0
   34.9248   19.8069   10.1458 C   0  0  0  0  0  0  0  0  0  0  0  0
   33.5516   19.9727   10.0294 C   0  0  0  0  0  0  0  0  0  0  0  0
   32.8888   20.8780   10.7573 N   0  0  0  0  0  0  0  0  0  0  0  0
   33.4877   21.6850   11.6432 C   0  0  0  0  0  0  0  0  0  0  0  0
   34.8351   21.5447   11.7780 C   0  0  0  0  0  0  0  0  0  0  0  0
   35.5805   20.6026   11.0315 C   0  0  0  0  0  0  0  0  0  0  0  0
   36.9670   20.5467   11.2413 N   0  0  0  0  0  0  0  0  0  0  0  0
   37.5350   20.1243   12.3606 C   0  0  0  0  0  0  0  0  0  0  0  0
   38.8626   20.2660   12.2507 N   0  0  0  0  0  0  0  0  0  0  0  0
   37.9253   20.9475   10.4406 C   0  0  0  0  0  0  0  0  0  0  0  0
   39.1539   20.7860   11.0458 C   0  0  0  0  0  0  0  0  0  0  0  0
   40.4873   21.0923   10.5397 C   0  0  0  0  0  0  0  0  0  0  0  0
   40.7903   21.4409    9.2397 C   0  0  0  0  0  0  0  0  0  0  0  0
   42.0979   21.6510    9.1269 N   0  0  0  0  0  0  0  0  0  0  0  0
   41.6869   21.1034   11.2072 C   0  0  0  0  0  0  0  0  0  0  0  0
   42.6307   21.4458   10.3155 N   0  0  0  0  0  0  0  0  0  0  0  0
   44.0383   21.5757   10.6026 C   0  0  0  0  0  0  0  0  0  0  0  0
  1  2  2  0
  2  3  1  0
  2  4  1  0
  4  5  2  0
  4  8  1  0
  5  6  1  0
  6  7  1  0
  6 10  2  0
  8  9  2  0
  9 10  1  0
 10 11  1  0
 11 12  1  0
 11 18  1  0
 12 13  2  0
 13 14  1  0
 13 17  1  0
 14 15  1  6
 14 16  1  0
 17 18  2  0
 17 22  1  0
 18 19  1  0
 19 20  2  0
 20 21  1  0
 21 22  2  0
 22 23  1  0
 23 24  1  0
 23 26  1  0
 24 25  2  0
 25 27  1  0
 26 27  2  0
 27 28  1  0
 28 29  1  0
 28 31  2  0
 29 30  2  0
 30 32  1  0
 31 32  1  0
 32 33  1  0
M  END
$$$$
