
     RDKit          3D

 33 37  0  0  0  0  0  0  0  0999 V2000
   26.3808   21.0630    8.3141 O   0  0  0  0  0  0  0  0  0  0  0  0
   27.0227   19.9892    8.1975 C   0  0  0  0  0  0  0  0  0  0  0  0
   26.2697   18.8307    7.8584 N   0  0  0  0  0  0  0  0  0  0  0  0
   28.4584   19.9560    8.4028 C   0  0  0  0  0  0  0  0  0  0  0  0
   29.1228   18.7538    8.2993 C   0  0  0  0  0  0  0  0  0  0  0  0
   30.4685   18.6546    8.4804 C   0  0  0  0  0  0  0  0  0  0  0  0
   31.1524   17.3420    8.3612 C   0  0  0  0  0  0  0  0  0  0  0  0
   29.1833   21.0990    8.7005 C   0  0  0  0  0  0  0  0  0  0  0  0
   30.5471   21.0013    8.8845 C   0  0  0  0  0  0  0  0  0  0  0  0
   31.2034   19.7842    8.7773 C   0  0  0  0  0  0  0  0  0  0  0  0
   32.6123   19.7277    8.9748 N   0  0  0  0  0  0  0  0  0  0  0  0
   33.5368   20.0367    8.1043 N   0  0  0  0  0  0  0  0  0  0  0  0
   34.7581   19.8612    8.6409 C   0  0  0  0  0  0  0  0  0  0  0  0
   36.0429   20.0995    7.9649 C   0  0  1  0  0  0  0  0  0  0  0  0
   36.0929   19.3159    6.6432 C   0  0  0  0  0  0  0  0  0  0  0  0
   36.1084   21.5839    7.5264 C   0  0  0  0  0  0  0  0  0  0  0  0
   34.5646   19.4164    9.9224 C   0  0  0  0  0  0  0  0  0  0  0  0
   33.1812   19.3307   10.1363 C   0  0  0  0  0  0  0  0  0  0  0  0
   32.6866   18.9223   11.3065 N   0  0  0  0  0  0  0  0  0  0  0  0
   33.4609   18.5707   12.3440 C   0  0  0  0  0  0  0  0  0  0  0  0
   34.8080   18.6391   12.1805 C   0  0  0  0  0  0  0  0  0  0  0  0
   35.3736   19.0593   10.9777 C   0  0  0  0  0  0  0  0  0  0  0  0
   36.7847   19.1197   10.8530 N   0  0  0  0  0  0  0  0  0  0  0  0
   37.5691   18.1173   10.4372 C   0  0  0  0  0  0  0  0  0  0  0  0
   38.8603   18.5503   10.4224 N   0  0  0  0  0  0  0  0  0  0  0  0
   37.5661   20.1701   11.0976 C   0  0  0  0  0  0  0  0  0  0  0  0
   38.8744   19.8337   10.8333 C   0  0  0  0  0  0  0  0  0  0  0  0
   40.0898   20.6281   10.9438 C   0  0  0  0  0  0  0  0  0  0  0  0
   40.1893   21.9993   11.1566 C   0  0  0  0  0  0  0  0  0  0  0  0
   41.4944   22.3045   11.1898 N   0  0  0  0  0  0  0  0  0  0  0  0
   41.4023   20.2019   10.8627 C   0  0  0  0  0  0  0  0  0  0  0  0
   42.2371   21.2437   11.0160 N   0  0  0  0  0  0  0  0  0  0  0  0
   43.6833   21.1982   10.9929 C   0  0  0  0  0  0  0  0  0  0  0  0
  1  2  2  0
  2  3  1  0
  2  4  1  0
  4  5  2  0
  4  8  1  0
  5  6  1  0
  7  6  1  6
  6 10  2  0
  8  9  2  0
  9 10  1  0
 10 11  1  0
 11 12  1  0
 11 18  1  0
 12 13  2  0
 14 13  1  6
 13 17  1  0
 15 14  1  6
 16 14  1  6
 17 18  2  0
 17 22  1  0
 18 19  1  0
 19 20  2  0
 20 21  1  0
 21 22  2  0
 22 23  1  0
 23 24  1  0
 23 26  1  0
 24 25  2  0
 25 27  1  0
 26 27  2  0
 27 28  1  0
 28 29  1  0
 28 31  2  0
 29 30  2  0
 30 32  1  0
 31 32  1  0
 33 32  1  6
M  END
$$$$
