
     RDKit          3D

 33 37  0  0  0  0  0  0  0  0999 V2000
   26.2440   18.8690    7.0309 O   0  0  0  0  0  0  0  0  0  0  0  0
   26.8478   19.9517    7.2355 C   0  0  0  0  0  0  0  0  0  0  0  0
   26.1169   21.1460    6.9833 N   0  0  0  0  0  0  0  0  0  0  0  0
   28.2204   19.9595    7.7049 C   0  0  0  0  0  0  0  0  0  0  0  0
   29.0195   18.8650    7.4584 C   0  0  0  0  0  0  0  0  0  0  0  0
   30.3155   18.8093    7.8718 C   0  0  0  0  0  0  0  0  0  0  0  0
   31.1484   17.6131    7.5887 C   0  0  0  0  0  0  0  0  0  0  0  0
   28.7533   21.0367    8.3952 C   0  0  0  0  0  0  0  0  0  0  0  0
   30.0663   20.9829    8.8153 C   0  0  0  0  0  0  0  0  0  0  0  0
   30.8598   19.8743    8.5602 C   0  0  0  0  0  0  0  0  0  0  0  0
   32.2100   19.8599    9.0115 N   0  0  0  0  0  0  0  0  0  0  0  0
   33.2467   20.3595    8.3922 N   0  0  0  0  0  0  0  0  0  0  0  0
   34.3622   20.1609    9.1180 C   0  0  0  0  0  0  0  0  0  0  0  0
   35.7231   20.5772    8.7449 C   0  0  1  0  0  0  0  0  0  0  0  0
   36.1591   19.8530    7.4608 C   0  0  0  0  0  0  0  0  0  0  0  0
   35.6951   22.0733    8.3435 C   0  0  0  0  0  0  0  0  0  0  0  0
   33.9796   19.4970   10.2540 C   0  0  0  0  0  0  0  0  0  0  0  0
   32.5923   19.3035   10.1840 C   0  0  0  0  0  0  0  0  0  0  0  0
   31.9314   18.6783   11.1603 N   0  0  0  0  0  0  0  0  0  0  0  0
   32.5335   18.1985   12.2589 C   0  0  0  0  0  0  0  0  0  0  0  0
   33.8776   18.3645   12.3680 C   0  0  0  0  0  0  0  0  0  0  0  0
   34.6129   19.0106   11.3755 C   0  0  0  0  0  0  0  0  0  0  0  0
   36.0134   19.1656   11.5332 N   0  0  0  0  0  0  0  0  0  0  0  0
   36.7421   18.6511   12.5318 C   0  0  0  0  0  0  0  0  0  0  0  0
   38.0477   18.9863   12.3376 N   0  0  0  0  0  0  0  0  0  0  0  0
   36.8438   19.8159   10.7200 C   0  0  0  0  0  0  0  0  0  0  0  0
   38.1273   19.7157   11.2072 C   0  0  0  0  0  0  0  0  0  0  0  0
   39.3760   20.2508   10.6831 C   0  0  0  0  0  0  0  0  0  0  0  0
   39.5627   20.9664    9.5047 C   0  0  0  0  0  0  0  0  0  0  0  0
   40.8681   21.2593    9.4180 N   0  0  0  0  0  0  0  0  0  0  0  0
   40.6414   20.1684   11.2333 C   0  0  0  0  0  0  0  0  0  0  0  0
   41.5312   20.7911   10.4420 N   0  0  0  0  0  0  0  0  0  0  0  0
   42.9530   20.9184   10.6795 C   0  0  0  0  0  0  0  0  0  0  0  0
  1  2  2  0
  2  3  1  0
  2  4  1  0
  4  5  2  0
  4  8  1  0
  5  6  1  0
  7  6  1  6
  6 10  2  0
  8  9  2  0
  9 10  1  0
 10 11  1  0
 11 12  1  0
 11 18  1  0
 12 13  2  0
 14 13  1  6
 13 17  1  0
 15 14  1  6
 16 14  1  6
 17 18  2  0
 17 22  1  0
 18 19  1  0
 19 20  2  0
 20 21  1  0
 21 22  2  0
 22 23  1  0
 23 24  1  0
 23 26  1  0
 24 25  2  0
 25 27  1  0
 26 27  2  0
 27 28  1  0
 28 29  1  0
 28 31  2  0
 29 30  2  0
 30 32  1  0
 31 32  1  0
 33 32  1  6
M  END
$$$$
