
     RDKit          3D

 33 37  0  0  0  0  0  0  0  0999 V2000
   26.5839   21.9624    8.1144 O   0  0  0  0  0  0  0  0  0  0  0  0
   27.1280   20.8372    7.9857 C   0  0  0  0  0  0  0  0  0  0  0  0
   26.2996   19.7790    7.5185 N   0  0  0  0  0  0  0  0  0  0  0  0
   28.5310   20.6498    8.3032 C   0  0  0  0  0  0  0  0  0  0  0  0
   29.0505   19.3742    8.3179 C   0  0  0  0  0  0  0  0  0  0  0  0
   30.3582   19.1304    8.6079 C   0  0  0  0  0  0  0  0  0  0  0  0
   30.8847   17.7420    8.6147 C   0  0  0  0  0  0  0  0  0  0  0  0
   29.3663   21.7171    8.5927 C   0  0  0  0  0  0  0  0  0  0  0  0
   30.6919   21.4729    8.8869 C   0  0  0  0  0  0  0  0  0  0  0  0
   31.2018   20.1832    8.8982 C   0  0  0  0  0  0  0  0  0  0  0  0
   32.5760   19.9754    9.2071 N   0  0  0  0  0  0  0  0  0  0  0  0
   33.6018   20.2994    8.4650 N   0  0  0  0  0  0  0  0  0  0  0  0
   34.7478   19.9510    9.0780 C   0  0  0  0  0  0  0  0  0  0  0  0
   36.1067   20.1491    8.5501 C   0  0  1  0  0  0  0  0  0  0  0  0
   36.3022   19.3094    7.2774 C   0  0  0  0  0  0  0  0  0  0  0  0
   36.2437   21.6128    8.0612 C   0  0  0  0  0  0  0  0  0  0  0  0
   34.3968   19.3773   10.2719 C   0  0  0  0  0  0  0  0  0  0  0  0
   32.9969   19.3935   10.3537 C   0  0  0  0  0  0  0  0  0  0  0  0
   32.3607   18.8966   11.4163 N   0  0  0  0  0  0  0  0  0  0  0  0
   33.0009   18.3557   12.4639 C   0  0  0  0  0  0  0  0  0  0  0  0
   34.3586   18.3196   12.4264 C   0  0  0  0  0  0  0  0  0  0  0  0
   35.0692   18.8257   11.3392 C   0  0  0  0  0  0  0  0  0  0  0  0
   36.4860   18.7713   11.3446 N   0  0  0  0  0  0  0  0  0  0  0  0
   37.2179   17.6520   11.4094 C   0  0  0  0  0  0  0  0  0  0  0  0
   38.5367   17.9892   11.3668 N   0  0  0  0  0  0  0  0  0  0  0  0
   37.3273   19.8005   11.2623 C   0  0  0  0  0  0  0  0  0  0  0  0
   38.6212   19.3311   11.2747 C   0  0  0  0  0  0  0  0  0  0  0  0
   39.8838   20.0533   11.2069 C   0  0  0  0  0  0  0  0  0  0  0  0
   41.1623   19.5460   11.4157 C   0  0  0  0  0  0  0  0  0  0  0  0
   42.0253   20.5591   11.2530 N   0  0  0  0  0  0  0  0  0  0  0  0
   40.0921   21.3900   10.9230 C   0  0  0  0  0  0  0  0  0  0  0  0
   41.4057   21.6709   10.9578 N   0  0  0  0  0  0  0  0  0  0  0  0
   42.0168   22.9600   10.7146 C   0  0  0  0  0  0  0  0  0  0  0  0
  1  2  2  0
  2  3  1  0
  2  4  1  0
  4  5  2  0
  4  8  1  0
  5  6  1  0
  7  6  1  6
  6 10  2  0
  8  9  2  0
  9 10  1  0
 10 11  1  0
 11 12  1  0
 11 18  1  0
 12 13  2  0
 14 13  1  6
 13 17  1  0
 15 14  1  6
 16 14  1  6
 17 18  2  0
 17 22  1  0
 18 19  1  0
 19 20  2  0
 20 21  1  0
 21 22  2  0
 22 23  1  0
 23 24  1  0
 23 26  1  0
 24 25  2  0
 25 27  1  0
 26 27  2  0
 27 28  1  0
 28 29  1  0
 28 31  2  0
 29 30  2  0
 30 32  1  0
 31 32  1  0
 33 32  1  6
M  END
$$$$
