
     RDKit          3D

 33 37  0  0  0  0  0  0  0  0999 V2000
   26.4609   18.9566    8.8655 O   0  0  0  0  0  0  0  0  0  0  0  0
   27.2524   19.2435    7.9377 C   0  0  0  0  0  0  0  0  0  0  0  0
   26.7695   19.5630    6.6445 N   0  0  0  0  0  0  0  0  0  0  0  0
   28.6798   19.2424    8.2138 C   0  0  0  0  0  0  0  0  0  0  0  0
   29.5394   20.1618    7.6235 C   0  0  0  0  0  0  0  0  0  0  0  0
   30.8803   20.1924    7.8568 C   0  0  0  0  0  0  0  0  0  0  0  0
   31.7084   21.2331    7.1607 C   0  0  0  0  0  0  0  0  0  0  0  0
   29.2627   18.3350    9.0722 C   0  0  0  0  0  0  0  0  0  0  0  0
   30.6191   18.3501    9.3214 C   0  0  0  0  0  0  0  0  0  0  0  0
   31.4525   19.2736    8.7226 C   0  0  0  0  0  0  0  0  0  0  0  0
   32.8582   19.2974    8.9740 N   0  0  0  0  0  0  0  0  0  0  0  0
   33.8449   19.3822    8.1210 N   0  0  0  0  0  0  0  0  0  0  0  0
   35.0671   19.3759    8.7462 C   0  0  0  0  0  0  0  0  0  0  0  0
   36.3725   19.4540    8.0516 C   0  0  1  0  0  0  0  0  0  0  0  0
   36.6520   18.3787    7.0701 C   0  0  0  0  0  0  0  0  0  0  0  0
   36.8915   20.8144    7.7427 C   0  0  0  0  0  0  0  0  0  0  0  0
   34.7434   19.2786   10.0844 C   0  0  0  0  0  0  0  0  0  0  0  0
   33.3636   19.2292   10.2279 C   0  0  0  0  0  0  0  0  0  0  0  0
   32.7850   19.1345   11.4299 N   0  0  0  0  0  0  0  0  0  0  0  0
   33.4798   19.0809   12.5741 C   0  0  0  0  0  0  0  0  0  0  0  0
   34.8358   19.1280   12.4637 C   0  0  0  0  0  0  0  0  0  0  0  0
   35.4946   19.2280   11.2160 C   0  0  0  0  0  0  0  0  0  0  0  0
   36.8971   19.2787   11.2156 N   0  0  0  0  0  0  0  0  0  0  0  0
   37.6814   18.2116   11.2173 C   0  0  0  0  0  0  0  0  0  0  0  0
   38.9573   18.6142   11.2862 N   0  0  0  0  0  0  0  0  0  0  0  0
   37.6705   20.3358   11.2822 C   0  0  0  0  0  0  0  0  0  0  0  0
   38.9958   19.9572   11.3293 C   0  0  0  0  0  0  0  0  0  0  0  0
   40.1963   20.7821   11.4080 C   0  0  0  0  0  0  0  0  0  0  0  0
   40.2702   22.1220   11.0874 C   0  0  0  0  0  0  0  0  0  0  0  0
   41.5119   22.5579   11.2741 N   0  0  0  0  0  0  0  0  0  0  0  0
   41.4648   20.4324   11.7994 C   0  0  0  0  0  0  0  0  0  0  0  0
   42.2250   21.5351   11.7028 N   0  0  0  0  0  0  0  0  0  0  0  0
   43.6302   21.6071   12.0204 C   0  0  0  0  0  0  0  0  0  0  0  0
  1  2  2  0
  2  3  1  0
  2  4  1  0
  4  5  2  0
  4  8  1  0
  5  6  1  0
  6  7  1  0
  6 10  2  0
  8  9  2  0
  9 10  1  0
 10 11  1  0
 11 12  1  0
 11 18  1  0
 12 13  2  0
 13 14  1  0
 13 17  1  0
 14 15  1  6
 14 16  1  0
 17 18  2  0
 17 22  1  0
 18 19  1  0
 19 20  2  0
 20 21  1  0
 21 22  2  0
 22 23  1  0
 23 24  1  0
 23 26  1  0
 24 25  2  0
 25 27  1  0
 26 27  2  0
 27 28  1  0
 28 29  1  0
 28 31  2  0
 29 30  2  0
 30 32  1  0
 31 32  1  0
 32 33  1  0
M  END
$$$$
